* NGSPICE file created from aux.ext - technology: sky130A

.subckt aux gpio_analog[0] gpio_analog[10] gpio_analog[11] gpio_analog[12] gpio_analog[13]
+ gpio_analog[14] gpio_analog[15] gpio_analog[16] gpio_analog[17] gpio_analog[1] gpio_analog[2]
+ gpio_analog[3] gpio_analog[4] gpio_analog[5] gpio_analog[6] gpio_analog[7] gpio_analog[8]
+ gpio_analog[9] gpio_noesd[0] gpio_noesd[10] gpio_noesd[11] gpio_noesd[12] gpio_noesd[13]
+ gpio_noesd[14] gpio_noesd[15] gpio_noesd[16] gpio_noesd[17] gpio_noesd[1] gpio_noesd[2]
+ gpio_noesd[3] gpio_noesd[4] gpio_noesd[5] gpio_noesd[6] gpio_noesd[7] gpio_noesd[8]
+ gpio_noesd[9] io_analog[0] io_analog[10] io_analog[1] io_analog[2] io_analog[3]
+ io_analog[7] io_analog[8] io_analog[9] io_analog[4] io_analog[5] io_analog[6] io_clamp_high[0]
+ io_clamp_high[1] io_clamp_high[2] io_clamp_low[0] io_clamp_low[1] io_clamp_low[2]
+ io_in[0] io_in[10] io_in[11] io_in[12] io_in[13] io_in[14] io_in[15] io_in[16] io_in[17]
+ io_in[18] io_in[19] io_in[1] io_in[20] io_in[21] io_in[22] io_in[23] io_in[24] io_in[25]
+ io_in[26] io_in[2] io_in[3] io_in[4] io_in[5] io_in[6] io_in[7] io_in[8] io_in[9]
+ io_in_3v3[0] io_in_3v3[10] io_in_3v3[11] io_in_3v3[12] io_in_3v3[13] io_in_3v3[14]
+ io_in_3v3[15] io_in_3v3[16] io_in_3v3[17] io_in_3v3[18] io_in_3v3[19] io_in_3v3[1]
+ io_in_3v3[20] io_in_3v3[21] io_in_3v3[22] io_in_3v3[23] io_in_3v3[24] io_in_3v3[25]
+ io_in_3v3[26] io_in_3v3[2] io_in_3v3[3] io_in_3v3[4] io_in_3v3[5] io_in_3v3[6] io_in_3v3[7]
+ io_in_3v3[8] io_in_3v3[9] io_oeb[0] io_oeb[10] io_oeb[11] io_oeb[12] io_oeb[13]
+ io_oeb[14] io_oeb[15] io_oeb[16] io_oeb[17] io_oeb[18] io_oeb[19] io_oeb[1] io_oeb[20]
+ io_oeb[21] io_oeb[22] io_oeb[23] io_oeb[24] io_oeb[25] io_oeb[26] io_oeb[2] io_oeb[3]
+ io_oeb[4] io_oeb[5] io_oeb[6] io_oeb[7] io_oeb[8] io_oeb[9] io_out[0] io_out[10]
+ io_out[11] io_out[12] io_out[13] io_out[14] io_out[16] io_out[17] io_out[18] io_out[19]
+ io_out[1] io_out[20] io_out[21] io_out[22] io_out[23] io_out[24] io_out[25] io_out[26]
+ io_out[2] io_out[3] io_out[4] io_out[5] io_out[6] io_out[7] io_out[8] io_out[9]
+ la_data_in[0] la_data_in[100] la_data_in[101] la_data_in[102] la_data_in[103] la_data_in[104]
+ la_data_in[105] la_data_in[106] la_data_in[107] la_data_in[108] la_data_in[109]
+ la_data_in[10] la_data_in[110] la_data_in[111] la_data_in[112] la_data_in[113] la_data_in[114]
+ la_data_in[115] la_data_in[116] la_data_in[117] la_data_in[118] la_data_in[119]
+ la_data_in[11] la_data_in[120] la_data_in[121] la_data_in[122] la_data_in[123] la_data_in[124]
+ la_data_in[125] la_data_in[126] la_data_in[127] la_data_in[12] la_data_in[13] la_data_in[14]
+ la_data_in[15] la_data_in[16] la_data_in[17] la_data_in[18] la_data_in[19] la_data_in[1]
+ la_data_in[20] la_data_in[21] la_data_in[22] la_data_in[23] la_data_in[24] la_data_in[25]
+ la_data_in[26] la_data_in[27] la_data_in[28] la_data_in[29] la_data_in[2] la_data_in[30]
+ la_data_in[31] la_data_in[32] la_data_in[33] la_data_in[34] la_data_in[35] la_data_in[36]
+ la_data_in[37] la_data_in[38] la_data_in[39] la_data_in[3] la_data_in[40] la_data_in[41]
+ la_data_in[42] la_data_in[43] la_data_in[44] la_data_in[45] la_data_in[46] la_data_in[47]
+ la_data_in[48] la_data_in[49] la_data_in[4] la_data_in[50] la_data_in[51] la_data_in[52]
+ la_data_in[53] la_data_in[54] la_data_in[55] la_data_in[56] la_data_in[57] la_data_in[58]
+ la_data_in[59] la_data_in[5] la_data_in[60] la_data_in[61] la_data_in[62] la_data_in[63]
+ la_data_in[64] la_data_in[65] la_data_in[66] la_data_in[67] la_data_in[68] la_data_in[69]
+ la_data_in[6] la_data_in[70] la_data_in[71] la_data_in[72] la_data_in[73] la_data_in[74]
+ la_data_in[75] la_data_in[76] la_data_in[77] la_data_in[78] la_data_in[79] la_data_in[7]
+ la_data_in[80] la_data_in[81] la_data_in[82] la_data_in[83] la_data_in[84] la_data_in[85]
+ la_data_in[86] la_data_in[87] la_data_in[88] la_data_in[89] la_data_in[8] la_data_in[90]
+ la_data_in[91] la_data_in[92] la_data_in[93] la_data_in[94] la_data_in[95] la_data_in[96]
+ la_data_in[97] la_data_in[98] la_data_in[99] la_data_in[9] la_data_out[0] la_data_out[100]
+ la_data_out[101] la_data_out[102] la_data_out[103] la_data_out[104] la_data_out[105]
+ la_data_out[106] la_data_out[107] la_data_out[108] la_data_out[109] la_data_out[10]
+ la_data_out[110] la_data_out[111] la_data_out[112] la_data_out[113] la_data_out[114]
+ la_data_out[115] la_data_out[116] la_data_out[117] la_data_out[118] la_data_out[119]
+ la_data_out[11] la_data_out[120] la_data_out[121] la_data_out[122] la_data_out[123]
+ la_data_out[124] la_data_out[125] la_data_out[126] la_data_out[127] la_data_out[12]
+ la_data_out[13] la_data_out[14] la_data_out[15] la_data_out[16] la_data_out[17]
+ la_data_out[18] la_data_out[19] la_data_out[1] la_data_out[20] la_data_out[21] la_data_out[22]
+ la_data_out[23] la_data_out[24] la_data_out[25] la_data_out[26] la_data_out[27]
+ la_data_out[28] la_data_out[29] la_data_out[2] la_data_out[30] la_data_out[31] la_data_out[32]
+ la_data_out[33] la_data_out[34] la_data_out[35] la_data_out[36] la_data_out[37]
+ la_data_out[38] la_data_out[39] la_data_out[3] la_data_out[40] la_data_out[41] la_data_out[42]
+ la_data_out[43] la_data_out[44] la_data_out[45] la_data_out[46] la_data_out[47]
+ la_data_out[48] la_data_out[49] la_data_out[4] la_data_out[50] la_data_out[51] la_data_out[52]
+ la_data_out[53] la_data_out[54] la_data_out[55] la_data_out[56] la_data_out[57]
+ la_data_out[58] la_data_out[59] la_data_out[5] la_data_out[60] la_data_out[61] la_data_out[62]
+ la_data_out[63] la_data_out[64] la_data_out[65] la_data_out[66] la_data_out[67]
+ la_data_out[68] la_data_out[69] la_data_out[6] la_data_out[70] la_data_out[71] la_data_out[72]
+ la_data_out[73] la_data_out[74] la_data_out[75] la_data_out[76] la_data_out[77]
+ la_data_out[78] la_data_out[79] la_data_out[7] la_data_out[80] la_data_out[81] la_data_out[82]
+ la_data_out[83] la_data_out[84] la_data_out[85] la_data_out[86] la_data_out[87]
+ la_data_out[88] la_data_out[89] la_data_out[8] la_data_out[90] la_data_out[91] la_data_out[92]
+ la_data_out[93] la_data_out[94] la_data_out[95] la_data_out[96] la_data_out[97]
+ la_data_out[98] la_data_out[99] la_data_out[9] la_oenb[0] la_oenb[100] la_oenb[101]
+ la_oenb[102] la_oenb[103] la_oenb[104] la_oenb[105] la_oenb[106] la_oenb[107] la_oenb[108]
+ la_oenb[109] la_oenb[10] la_oenb[110] la_oenb[111] la_oenb[112] la_oenb[113] la_oenb[114]
+ la_oenb[115] la_oenb[116] la_oenb[117] la_oenb[118] la_oenb[119] la_oenb[11] la_oenb[120]
+ la_oenb[121] la_oenb[122] la_oenb[123] la_oenb[124] la_oenb[125] la_oenb[126] la_oenb[127]
+ la_oenb[12] la_oenb[13] la_oenb[14] la_oenb[15] la_oenb[16] la_oenb[17] la_oenb[18]
+ la_oenb[19] la_oenb[1] la_oenb[20] la_oenb[21] la_oenb[22] la_oenb[23] la_oenb[24]
+ la_oenb[25] la_oenb[26] la_oenb[27] la_oenb[28] la_oenb[29] la_oenb[2] la_oenb[30]
+ la_oenb[31] la_oenb[32] la_oenb[33] la_oenb[34] la_oenb[35] la_oenb[36] la_oenb[37]
+ la_oenb[38] la_oenb[39] la_oenb[3] la_oenb[40] la_oenb[41] la_oenb[42] la_oenb[43]
+ la_oenb[44] la_oenb[45] la_oenb[46] la_oenb[47] la_oenb[48] la_oenb[49] la_oenb[4]
+ la_oenb[50] la_oenb[51] la_oenb[52] la_oenb[53] la_oenb[54] la_oenb[55] la_oenb[56]
+ la_oenb[57] la_oenb[58] la_oenb[59] la_oenb[5] la_oenb[60] la_oenb[61] la_oenb[62]
+ la_oenb[63] la_oenb[64] la_oenb[65] la_oenb[66] la_oenb[67] la_oenb[68] la_oenb[69]
+ la_oenb[6] la_oenb[70] la_oenb[71] la_oenb[72] la_oenb[73] la_oenb[74] la_oenb[75]
+ la_oenb[76] la_oenb[77] la_oenb[78] la_oenb[79] la_oenb[7] la_oenb[80] la_oenb[81]
+ la_oenb[82] la_oenb[83] la_oenb[84] la_oenb[85] la_oenb[86] la_oenb[87] la_oenb[88]
+ la_oenb[89] la_oenb[8] la_oenb[90] la_oenb[91] la_oenb[92] la_oenb[93] la_oenb[94]
+ la_oenb[95] la_oenb[96] la_oenb[97] la_oenb[98] la_oenb[99] la_oenb[9] user_clock2
+ user_irq[0] user_irq[1] user_irq[2] vccd2 vdda2 vssa2 vssd1 vssd2 wb_clk_i wb_rst_i
+ wbs_ack_o wbs_adr_i[0] wbs_adr_i[10] wbs_adr_i[11] wbs_adr_i[12] wbs_adr_i[13] wbs_adr_i[14]
+ wbs_adr_i[15] wbs_adr_i[16] wbs_adr_i[17] wbs_adr_i[18] wbs_adr_i[19] wbs_adr_i[1]
+ wbs_adr_i[20] wbs_adr_i[21] wbs_adr_i[22] wbs_adr_i[23] wbs_adr_i[24] wbs_adr_i[25]
+ wbs_adr_i[26] wbs_adr_i[27] wbs_adr_i[28] wbs_adr_i[29] wbs_adr_i[2] wbs_adr_i[30]
+ wbs_adr_i[31] wbs_adr_i[3] wbs_adr_i[4] wbs_adr_i[5] wbs_adr_i[6] wbs_adr_i[7] wbs_adr_i[8]
+ wbs_adr_i[9] wbs_cyc_i wbs_dat_i[0] wbs_dat_i[10] wbs_dat_i[11] wbs_dat_i[12] wbs_dat_i[13]
+ wbs_dat_i[14] wbs_dat_i[15] wbs_dat_i[16] wbs_dat_i[17] wbs_dat_i[18] wbs_dat_i[19]
+ wbs_dat_i[1] wbs_dat_i[20] wbs_dat_i[21] wbs_dat_i[22] wbs_dat_i[23] wbs_dat_i[24]
+ wbs_dat_i[25] wbs_dat_i[26] wbs_dat_i[27] wbs_dat_i[28] wbs_dat_i[29] wbs_dat_i[2]
+ wbs_dat_i[30] wbs_dat_i[31] wbs_dat_i[3] wbs_dat_i[4] wbs_dat_i[5] wbs_dat_i[6]
+ wbs_dat_i[7] wbs_dat_i[8] wbs_dat_i[9] wbs_dat_o[0] wbs_dat_o[10] wbs_dat_o[11]
+ wbs_dat_o[12] wbs_dat_o[13] wbs_dat_o[14] wbs_dat_o[15] wbs_dat_o[16] wbs_dat_o[17]
+ wbs_dat_o[18] wbs_dat_o[19] wbs_dat_o[1] wbs_dat_o[20] wbs_dat_o[21] wbs_dat_o[22]
+ wbs_dat_o[23] wbs_dat_o[24] wbs_dat_o[25] wbs_dat_o[26] wbs_dat_o[27] wbs_dat_o[28]
+ wbs_dat_o[29] wbs_dat_o[2] wbs_dat_o[30] wbs_dat_o[31] wbs_dat_o[3] wbs_dat_o[4]
+ wbs_dat_o[5] wbs_dat_o[6] wbs_dat_o[7] wbs_dat_o[8] wbs_dat_o[9] wbs_sel_i[0] wbs_sel_i[1]
+ wbs_sel_i[2] wbs_sel_i[3] wbs_stb_i wbs_we_i vssa1 io_out[15] vccd1 vdda1
X0 vccd1.t57 a_337443_613718.t2 a_337443_613718.t3 vccd1.t55 sky130_fd_pr__pfet_01v8_lvt ad=0.725 pd=5.58 as=0.725 ps=5.58 w=2.5 l=2
X1 a_339370_613888.t9 a_335807_622237.t6 pmu_circuits_0.iref_2nA_0.iref_2nA_igenerator_0.Ip2.t8 vccd1.t25 sky130_fd_pr__pfet_01v8_lvt ad=0.725 pd=5.58 as=0.725 ps=5.58 w=2.5 l=2
X2 vdda1 pmu_circuits_0.ring_100mV_0.mdls_inv_2.IN a_343294_619079# vssa1 sky130_fd_pr__nfet_01v8_lvt ad=1.6 pd=11.6 as=1.6 ps=11.6 w=5.5 l=0.4
X3 vccd1.t66 a_350942_613328.t6 a_350378_615130.t3 vccd1.t65 sky130_fd_pr__pfet_01v8 ad=0.258 pd=2.36 as=0.258 ps=2.36 w=0.89 l=3.89
X4 a_337674_621712# a_335807_622237.t7 pmu_circuits_0.iref_2nA_0.iref_2nA_igenerator_0.Ip1.t3 vccd1.t7 sky130_fd_pr__pfet_01v8_lvt ad=0.725 pd=5.58 as=0.725 ps=5.58 w=2.5 l=2
X5 a_337443_613718.t1 a_335807_622237.t2 a_335807_622237.t3 vccd1.t50 sky130_fd_pr__pfet_01v8_lvt ad=0.725 pd=5.58 as=0.725 ps=5.58 w=2.5 l=2
X6 a_339370_613888.t8 a_335807_622237.t8 pmu_circuits_0.iref_2nA_0.iref_2nA_igenerator_0.Ip2.t4 vccd1.t25 sky130_fd_pr__pfet_01v8_lvt ad=0.725 pd=5.58 as=0.725 ps=5.58 w=2.5 l=2
X7 a_343294_617413# pmu_circuits_0.ring_100mV_0.mdls_inv_6.IN.t5 vdda1 vdda1 sky130_fd_pr__pfet_01v8_lvt ad=0.29 pd=2.58 as=0.29 ps=2.58 w=1 l=2
X8 pmu_circuits_0.iref_2nA_0.iref_2nA_igenerator_0.VCTAT vssa1 vssa1 pmu_circuits_0.iref_2nA_0.iref_2nA_igenerator_0.VCTAT sky130_fd_pr__pfet_01v8 ad=0.58 pd=4.58 as=0.58 ps=4.58 w=2 l=0.5
R0 io_oeb[15] vssd1 sky130_fd_pr__res_generic_m3 w=0.56 l=0.6
X9 vssa1 pmu_circuits_0.ring_100mV_0.mdls_inv_3.OUT.t5 a_341600_622217.t7 vssa1 sky130_fd_pr__nfet_01v8_lvt ad=1.6 pd=11.6 as=1.6 ps=11.6 w=5.5 l=0.8
R1 io_analog[4] io_clamp_high[0] sky130_fd_pr__res_generic_m3 w=11 l=0.25
X10 vdda1 pmu_circuits_0.ring_100mV_0.mdls_inv_0.IN a_345642_615404# vssa1 sky130_fd_pr__nfet_01v8_lvt ad=1.6 pd=11.6 as=1.6 ps=11.6 w=5.5 l=0.4
X11 gpio_analog[3].t15 a_341600_622217.t10 vssa1 vssa1 sky130_fd_pr__nfet_01v8_lvt ad=1.6 pd=11.6 as=1.6 ps=11.6 w=5.5 l=0.8
X12 vdda1 a_341600_622217.t11 gpio_analog[3].t19 vdda1 sky130_fd_pr__pfet_01v8_lvt ad=0.29 pd=2.58 as=0.29 ps=2.58 w=1 l=0.8
X13 a_341818_614929.t1 pmu_circuits_0.ring_100mV_0.mdls_inv_1.OUT.t5 vssa1 vssa1 sky130_fd_pr__nfet_01v8_lvt ad=1.6 pd=11.6 as=1.6 ps=11.6 w=5.5 l=1
X14 a_339370_613888.t7 a_335807_622237.t9 pmu_circuits_0.iref_2nA_0.iref_2nA_igenerator_0.Ip2.t3 vccd1.t25 sky130_fd_pr__pfet_01v8_lvt ad=0.725 pd=5.58 as=0.725 ps=5.58 w=2.5 l=2
X15 pmu_circuits_0.ring_100mV_0.mdls_inv_4.IN.t3 pmu_circuits_0.ring_100mV_0.mdls_inv_6.IN.t6 a_341818_616595.t5 vssa1 sky130_fd_pr__nfet_01v8_lvt ad=1.6 pd=11.6 as=1.6 ps=11.6 w=5.5 l=0.8
X16 a_350722_615130.t7 gpio_analog[7].t4 vssa1 vssa1 sky130_fd_pr__nfet_01v8_lvt ad=1.48 pd=10.8 as=1.48 ps=10.8 w=5.1 l=0.66
X17 pmu_circuits_0.ring_100mV_0.mdls_inv_1.OUT.t4 pmu_circuits_0.ring_100mV_0.mdls_inv_0.OUT.t5 a_341818_613263.t5 vssa1 sky130_fd_pr__nfet_01v8_lvt ad=1.6 pd=11.6 as=1.6 ps=11.6 w=5.5 l=0.8
X18 pmu_circuits_0.ring_100mV_0.mdls_inv_4.IN.t2 pmu_circuits_0.ring_100mV_0.mdls_inv_6.IN.t7 a_341818_616595.t4 vssa1 sky130_fd_pr__nfet_01v8_lvt ad=1.6 pd=11.6 as=1.6 ps=11.6 w=5.5 l=0.8
X19 a_343294_620745# pmu_circuits_0.ring_100mV_0.mdls_inv_2.IN vdda1 vdda1 sky130_fd_pr__pfet_01v8_lvt ad=0.29 pd=2.58 as=0.29 ps=2.58 w=1 l=2
X20 pmu_circuits_0.ring_100mV_0.mdls_inv_5.OUT pmu_circuits_0.ring_100mV_0.mdls_inv_2.OUT a_345642_618736# vdda1 sky130_fd_pr__pfet_01v8_lvt ad=0.29 pd=2.58 as=0.29 ps=2.58 w=1 l=0.8
X21 vccd1.t68 a_350942_613328.t7 a_350378_615130.t2 vccd1.t67 sky130_fd_pr__pfet_01v8 ad=0.258 pd=2.36 as=0.258 ps=2.36 w=0.89 l=3.89
X22 vssa1 pmu_circuits_0.ring_100mV_0.mdls_inv_0.IN a_345642_616040.t6 vdda1 sky130_fd_pr__pfet_01v8_lvt ad=0.29 pd=2.58 as=0.29 ps=2.58 w=1 l=0.8
X23 io_out[15].t2 io_out[16].t0 a_350722_615130.t0 io_out[15].t0 sky130_fd_pr__pfet_01v8_lvt ad=1.76 pd=12.7 as=1.76 ps=12.7 w=6.07 l=1.27
X24 io_out[11].t0 a_352038_622652.t4 a_352038_622652.t5 vssa1 sky130_fd_pr__nfet_01v8_lvt ad=0.499 pd=4.02 as=0.499 ps=4.02 w=1.72 l=3.1
X25 pmu_circuits_0.ring_100mV_0.mdls_inv_3.OUT.t3 pmu_circuits_0.ring_100mV_0.mdls_inv_2.IN a_341818_619927.t5 vssa1 sky130_fd_pr__nfet_01v8_lvt ad=1.6 pd=11.6 as=1.6 ps=11.6 w=5.5 l=0.8
X26 vssa1 vssa1 vssa1 vssa1 sky130_fd_pr__nfet_01v8_lvt ad=0.725 pd=5.58 as=100 ps=733 w=2.5 l=1
X27 a_339370_618592# a_335807_622237.t10 io_out[11].t3 vccd1.t25 sky130_fd_pr__pfet_01v8_lvt ad=0.725 pd=5.58 as=0.725 ps=5.58 w=2.5 l=2
X28 pmu_circuits_0.ring_100mV_0.mdls_inv_3.OUT.t2 pmu_circuits_0.ring_100mV_0.mdls_inv_2.IN a_341818_619927.t4 vssa1 sky130_fd_pr__nfet_01v8_lvt ad=1.6 pd=11.6 as=1.6 ps=11.6 w=5.5 l=0.8
X29 a_345642_613738# pmu_circuits_0.ring_100mV_0.mdls_inv_0.IN vdda1 vdda1 sky130_fd_pr__pfet_01v8_lvt ad=0.29 pd=2.58 as=0.29 ps=2.58 w=1 l=2
X30 pmu_circuits_0.ring_100mV_0.mdls_inv_0.IN pmu_circuits_0.ring_100mV_0.mdls_inv_7.OUT a_345642_616040.t5 vssa1 sky130_fd_pr__nfet_01v8_lvt ad=1.6 pd=11.6 as=1.6 ps=11.6 w=5.5 l=0.8
X31 vssa1 vssa1 vssa1 vssa1 sky130_fd_pr__nfet_01v8_lvt ad=0 pd=0 as=0.725 ps=5.58 w=2.5 l=1
X32 vssa1 pmu_circuits_0.ring_100mV_0.mdls_inv_3.OUT.t6 a_341600_622217.t6 vssa1 sky130_fd_pr__nfet_01v8_lvt ad=1.6 pd=11.6 as=1.6 ps=11.6 w=5.5 l=0.8
X33 a_341818_613263.t1 pmu_circuits_0.ring_100mV_0.mdls_inv_0.OUT.t6 vssa1 vssa1 sky130_fd_pr__nfet_01v8_lvt ad=1.6 pd=11.6 as=1.6 ps=11.6 w=5.5 l=1
X34 a_345642_617706.t5 pmu_circuits_0.ring_100mV_0.mdls_inv_5.OUT vssa1 vssa1 sky130_fd_pr__nfet_01v8_lvt ad=1.6 pd=11.6 as=1.6 ps=11.6 w=5.5 l=1
X35 gpio_analog[3].t14 a_341600_622217.t12 vssa1 vssa1 sky130_fd_pr__nfet_01v8_lvt ad=1.6 pd=11.6 as=1.6 ps=11.6 w=5.5 l=0.8
X36 a_343294_619079# pmu_circuits_0.ring_100mV_0.mdls_inv_4.IN.t5 vdda1 vdda1 sky130_fd_pr__pfet_01v8_lvt ad=0.29 pd=2.58 as=0.29 ps=2.58 w=1 l=2
X37 a_345642_617070# pmu_circuits_0.ring_100mV_0.mdls_inv_5.OUT vdda1 vdda1 sky130_fd_pr__pfet_01v8_lvt ad=0.29 pd=2.58 as=0.29 ps=2.58 w=1 l=2
X38 gpio_analog[3].t13 a_341600_622217.t13 vssa1 vssa1 sky130_fd_pr__nfet_01v8_lvt ad=1.6 pd=11.6 as=1.6 ps=11.6 w=5.5 l=0.8
X39 pmu_circuits_0.iref_2nA_0.iref_2nA_igenerator_0.Vg a_335719_622037.t6 vssa1 vssa1 sky130_fd_pr__nfet_01v8_lvt ad=0.725 pd=5.58 as=0.725 ps=5.58 w=2.5 l=1
X40 a_345642_616040.t1 pmu_circuits_0.ring_100mV_0.mdls_inv_7.OUT vssa1 vssa1 sky130_fd_pr__nfet_01v8_lvt ad=1.6 pd=11.6 as=1.6 ps=11.6 w=5.5 l=1
X41 a_337443_613718.t0 a_335807_622237.t0 a_335807_622237.t1 vccd1.t50 sky130_fd_pr__pfet_01v8_lvt ad=0.725 pd=5.58 as=0.725 ps=5.58 w=2.5 l=2
X42 a_339370_613888.t6 a_335807_622237.t11 pmu_circuits_0.iref_2nA_0.iref_2nA_igenerator_0.Ip2.t2 vccd1.t25 sky130_fd_pr__pfet_01v8_lvt ad=0.725 pd=5.58 as=0.725 ps=5.58 w=2.5 l=2
X43 pmu_circuits_0.ring_100mV_0.mdls_inv_2.IN pmu_circuits_0.ring_100mV_0.mdls_inv_4.IN.t6 a_341818_618261.t4 vssa1 sky130_fd_pr__nfet_01v8_lvt ad=1.6 pd=11.6 as=1.6 ps=11.6 w=5.5 l=0.8
X44 a_350722_615130.t6 gpio_analog[7].t5 vssa1 vssa1 sky130_fd_pr__nfet_01v8_lvt ad=1.48 pd=10.8 as=1.48 ps=10.8 w=5.1 l=0.66
X45 vccd1.t59 a_352038_622652.t2 a_352038_622652.t3 vssa1 sky130_fd_pr__nfet_01v8_lvt ad=1.74 pd=12.6 as=1.74 ps=12.6 w=6 l=0.89
X46 vccd1.t40 vccd1.t38 vccd1.t39 vccd1.t25 sky130_fd_pr__pfet_01v8_lvt ad=0 pd=0 as=0.145 ps=1.58 w=0.5 l=2
R2 vssd1 io_oeb[11] sky130_fd_pr__res_generic_m3 w=0.56 l=0.58
X47 pmu_circuits_0.ring_100mV_0.mdls_inv_2.IN pmu_circuits_0.ring_100mV_0.mdls_inv_4.IN.t7 a_341818_618261.t3 vssa1 sky130_fd_pr__nfet_01v8_lvt ad=1.6 pd=11.6 as=1.6 ps=11.6 w=5.5 l=0.8
X48 a_339370_613888.t5 a_335807_622237.t12 pmu_circuits_0.iref_2nA_0.iref_2nA_igenerator_0.Ip2.t11 vccd1.t25 sky130_fd_pr__pfet_01v8_lvt ad=0.725 pd=5.58 as=0.725 ps=5.58 w=2.5 l=2
X49 gpio_analog[3].t12 a_341600_622217.t14 vssa1 vssa1 sky130_fd_pr__nfet_01v8_lvt ad=1.6 pd=11.6 as=1.6 ps=11.6 w=5.5 l=0.8
X50 gpio_analog[3].t18 a_341600_622217.t15 vdda1 vdda1 sky130_fd_pr__pfet_01v8_lvt ad=0.29 pd=2.58 as=0.29 ps=2.58 w=1 l=0.8
X51 a_345642_620402# pmu_circuits_0.ring_100mV_0.mdls_inv_2.IN vdda1 vdda1 sky130_fd_pr__pfet_01v8_lvt ad=0.29 pd=2.58 as=0.29 ps=2.58 w=1 l=2
X52 vccd1.t47 a_350942_613328.t2 a_350942_613328.t3 vccd1.t46 sky130_fd_pr__pfet_01v8 ad=0.258 pd=2.36 as=0.258 ps=2.36 w=0.89 l=3.89
X53 pmu_circuits_0.ring_100mV_0.mdls_inv_7.OUT pmu_circuits_0.ring_100mV_0.mdls_inv_5.OUT a_345642_617706.t3 vssa1 sky130_fd_pr__nfet_01v8_lvt ad=1.6 pd=11.6 as=1.6 ps=11.6 w=5.5 l=0.8
R3 vssa1 io_clamp_low[1] sky130_fd_pr__res_generic_m3 w=11 l=0.25
X54 vdda1 pmu_circuits_0.ring_100mV_0.mdls_inv_6.IN.t8 a_343294_615747# vssa1 sky130_fd_pr__nfet_01v8_lvt ad=1.6 pd=11.6 as=1.6 ps=11.6 w=5.5 l=0.4
X55 a_336843_616061.t1 w_336471_617254# pmu_circuits_0.iref_2nA_0.iref_2nA_igenerator_0.VCTAT vccd1.t43 sky130_fd_pr__pfet_01v8_lvt ad=0.995 pd=7.44 as=0.995 ps=7.44 w=3.43 l=2.77
X56 gpio_analog[3].t11 a_341600_622217.t16 vssa1 vssa1 sky130_fd_pr__nfet_01v8_lvt ad=1.6 pd=11.6 as=1.6 ps=11.6 w=5.5 l=0.8
X57 vdda1 pmu_circuits_0.ring_100mV_0.mdls_inv_0.OUT.t7 a_345642_613738# vssa1 sky130_fd_pr__nfet_01v8_lvt ad=1.6 pd=11.6 as=1.6 ps=11.6 w=5.5 l=0.4
X58 vccd1.t69 pmu_circuits_0.iref_2nA_0.iref_2nA_igenerator_0.Ip2.t12 a_339370_613888.t19 vccd1.t3 sky130_fd_pr__pfet_01v8_lvt ad=0.725 pd=5.58 as=0.725 ps=5.58 w=2.5 l=2
X59 vssa1 gpio_analog[7].t6 a_350722_615130.t5 vssa1 sky130_fd_pr__nfet_01v8_lvt ad=1.48 pd=10.8 as=1.48 ps=10.8 w=5.1 l=0.66
X60 a_345642_618736# pmu_circuits_0.ring_100mV_0.mdls_inv_2.OUT vdda1 vdda1 sky130_fd_pr__pfet_01v8_lvt ad=0.29 pd=2.58 as=0.29 ps=2.58 w=1 l=2
X61 vdda1 pmu_circuits_0.ring_100mV_0.mdls_inv_1.OUT.t6 a_343294_614081# vssa1 sky130_fd_pr__nfet_01v8_lvt ad=1.6 pd=11.6 as=1.6 ps=11.6 w=5.5 l=0.4
X62 pmu_circuits_0.ring_100mV_0.mdls_inv_7.OUT pmu_circuits_0.ring_100mV_0.mdls_inv_5.OUT a_345642_617706.t2 vssa1 sky130_fd_pr__nfet_01v8_lvt ad=1.6 pd=11.6 as=1.6 ps=11.6 w=5.5 l=0.8
X63 vdda1 pmu_circuits_0.ring_100mV_0.mdls_inv_7.OUT a_345642_617070# vssa1 sky130_fd_pr__nfet_01v8_lvt ad=1.6 pd=11.6 as=1.6 ps=11.6 w=5.5 l=0.4
X64 pmu_circuits_0.iref_2nA_0.iref_2nA_igenerator_0.Vg a_335719_622037.t7 vssa1 vssa1 sky130_fd_pr__nfet_01v8_lvt ad=0.725 pd=5.58 as=0.725 ps=5.58 w=2.5 l=1
X65 a_341818_618261.t6 pmu_circuits_0.ring_100mV_0.mdls_inv_4.IN.t8 vssa1 vssa1 sky130_fd_pr__nfet_01v8_lvt ad=1.6 pd=11.6 as=1.6 ps=11.6 w=5.5 l=1
X66 vccd1.t70 pmu_circuits_0.iref_2nA_0.iref_2nA_igenerator_0.Ip2.t13 a_339370_613888.t18 vccd1.t3 sky130_fd_pr__pfet_01v8_lvt ad=0.725 pd=5.58 as=0.725 ps=5.58 w=2.5 l=2
X67 vdda1 pmu_circuits_0.ring_100mV_0.mdls_inv_2.OUT a_345642_620402# vssa1 sky130_fd_pr__nfet_01v8_lvt ad=1.6 pd=11.6 as=1.6 ps=11.6 w=5.5 l=0.4
X68 vccd1.t71 pmu_circuits_0.iref_2nA_0.iref_2nA_igenerator_0.Ip2.t14 a_339370_613888.t17 vccd1.t3 sky130_fd_pr__pfet_01v8_lvt ad=0.725 pd=5.58 as=0.725 ps=5.58 w=2.5 l=2
X69 vssa1 pmu_circuits_0.ring_100mV_0.mdls_inv_3.OUT.t7 a_341600_622217.t5 vssa1 sky130_fd_pr__nfet_01v8_lvt ad=1.6 pd=11.6 as=1.6 ps=11.6 w=5.5 l=0.8
X70 gpio_analog[3].t10 a_341600_622217.t17 vssa1 vssa1 sky130_fd_pr__nfet_01v8_lvt ad=1.6 pd=11.6 as=1.6 ps=11.6 w=5.5 l=0.8
X71 a_345642_621038.t1 pmu_circuits_0.ring_100mV_0.mdls_inv_2.IN vssa1 vssa1 sky130_fd_pr__nfet_01v8_lvt ad=1.6 pd=11.6 as=1.6 ps=11.6 w=5.5 l=1
R4 io_oeb[16] vssd1 sky130_fd_pr__res_generic_m3 w=0.56 l=0.31
X72 vccd1.t75 pmu_circuits_0.iref_2nA_0.iref_2nA_igenerator_0.Ip1.t4 a_337674_622496# vccd1.t21 sky130_fd_pr__pfet_01v8_lvt ad=0.725 pd=5.58 as=0.725 ps=5.58 w=2.5 l=2
X73 gpio_analog[3].t17 a_341600_622217.t18 vdda1 vdda1 sky130_fd_pr__pfet_01v8_lvt ad=0.29 pd=2.58 as=0.29 ps=2.58 w=1 l=0.8
X74 pmu_circuits_0.ring_100mV_0.mdls_inv_1.OUT.t2 pmu_circuits_0.ring_100mV_0.mdls_inv_0.OUT.t8 a_341818_613263.t4 vssa1 sky130_fd_pr__nfet_01v8_lvt ad=1.6 pd=11.6 as=1.6 ps=11.6 w=5.5 l=0.8
X75 vccd1.t51 pmu_circuits_0.iref_2nA_0.iref_2nA_igenerator_0.Ip2.t15 a_339370_613888.t16 vccd1.t3 sky130_fd_pr__pfet_01v8_lvt ad=0.725 pd=5.58 as=0.725 ps=5.58 w=2.5 l=2
X76 gpio_analog[3].t9 a_341600_622217.t19 vssa1 vssa1 sky130_fd_pr__nfet_01v8_lvt ad=1.6 pd=11.6 as=1.6 ps=11.6 w=5.5 l=0.8
X77 vssa1 gpio_analog[7].t2 gpio_analog[7].t3 vssa1 sky130_fd_pr__nfet_01v8_lvt ad=1.48 pd=10.8 as=1.48 ps=10.8 w=5.1 l=0.66
X78 pmu_circuits_0.ring_100mV_0.mdls_inv_5.OUT pmu_circuits_0.ring_100mV_0.mdls_inv_2.OUT a_345642_619372.t4 vssa1 sky130_fd_pr__nfet_01v8_lvt ad=1.6 pd=11.6 as=1.6 ps=11.6 w=5.5 l=0.8
R5 vssa1 io_clamp_low[0] sky130_fd_pr__res_generic_m3 w=11 l=0.25
X79 vssa1 pmu_circuits_0.ring_100mV_0.mdls_inv_4.IN.t9 a_341818_616595.t6 vdda1 sky130_fd_pr__pfet_01v8_lvt ad=0.29 pd=2.58 as=0.29 ps=2.58 w=1 l=0.8
X80 vdda1 pmu_circuits_0.ring_100mV_0.mdls_inv_3.OUT.t8 a_343294_620745# vssa1 sky130_fd_pr__nfet_01v8_lvt ad=1.6 pd=11.6 as=1.6 ps=11.6 w=5.5 l=0.4
X81 a_345642_614374.t2 pmu_circuits_0.ring_100mV_0.mdls_inv_0.IN vssa1 vssa1 sky130_fd_pr__nfet_01v8_lvt ad=1.6 pd=11.6 as=1.6 ps=11.6 w=5.5 l=1
X82 pmu_circuits_0.ring_100mV_0.mdls_inv_1.OUT.t3 pmu_circuits_0.ring_100mV_0.mdls_inv_0.OUT.t9 a_341818_613263.t3 vssa1 sky130_fd_pr__nfet_01v8_lvt ad=1.6 pd=11.6 as=1.6 ps=11.6 w=5.5 l=0.8
X83 vccd1.t37 vccd1.t35 vccd1.t36 vccd1.t21 sky130_fd_pr__pfet_01v8_lvt ad=0.145 pd=1.58 as=0 ps=0 w=0.5 l=2
R6 vssd1 io_oeb[12] sky130_fd_pr__res_generic_m3 w=0.56 l=0.49
X84 pmu_circuits_0.ring_100mV_0.mdls_inv_1.OUT.t1 pmu_circuits_0.ring_100mV_0.mdls_inv_0.OUT.t10 a_341818_613263.t2 vssa1 sky130_fd_pr__nfet_01v8_lvt ad=1.6 pd=11.6 as=1.6 ps=11.6 w=5.5 l=0.8
X85 vdda1 pmu_circuits_0.ring_100mV_0.mdls_inv_7.OUT a_345642_617070# vssa1 sky130_fd_pr__nfet_01v8_lvt ad=1.6 pd=11.6 as=1.6 ps=11.6 w=5.5 l=0.4
X86 vssa1 a_352038_622652.t6 io_out[11].t1 vssa1 sky130_fd_pr__nfet_01v8 ad=0.238 pd=2.22 as=0.238 ps=2.22 w=0.82 l=1.05
X87 vssa1 pmu_circuits_0.ring_100mV_0.mdls_inv_3.OUT.t9 a_341600_622217.t4 vssa1 sky130_fd_pr__nfet_01v8_lvt ad=1.6 pd=11.6 as=1.6 ps=11.6 w=5.5 l=0.8
X88 vdda1 pmu_circuits_0.ring_100mV_0.mdls_inv_5.OUT a_345642_618736# vssa1 sky130_fd_pr__nfet_01v8_lvt ad=1.6 pd=11.6 as=1.6 ps=11.6 w=5.5 l=0.4
X89 vccd1.t52 pmu_circuits_0.iref_2nA_0.iref_2nA_igenerator_0.Ip2.t16 a_339370_618592# vccd1.t3 sky130_fd_pr__pfet_01v8_lvt ad=0.725 pd=5.58 as=0.725 ps=5.58 w=2.5 l=2
X90 pmu_circuits_0.ring_100mV_0.mdls_inv_3.OUT.t1 pmu_circuits_0.ring_100mV_0.mdls_inv_2.IN a_341818_619927.t3 vssa1 sky130_fd_pr__nfet_01v8_lvt ad=1.6 pd=11.6 as=1.6 ps=11.6 w=5.5 l=0.8
X91 pmu_circuits_0.ring_100mV_0.mdls_inv_6.IN.t4 pmu_circuits_0.ring_100mV_0.mdls_inv_1.OUT.t7 a_341818_614929.t5 vssa1 sky130_fd_pr__nfet_01v8_lvt ad=1.6 pd=11.6 as=1.6 ps=11.6 w=5.5 l=0.8
X92 gpio_analog[3].t8 a_341600_622217.t20 vssa1 vssa1 sky130_fd_pr__nfet_01v8_lvt ad=1.6 pd=11.6 as=1.6 ps=11.6 w=5.5 l=0.8
X93 vdda1 pmu_circuits_0.ring_100mV_0.mdls_inv_2.IN a_343294_619079# vssa1 sky130_fd_pr__nfet_01v8_lvt ad=1.6 pd=11.6 as=1.6 ps=11.6 w=5.5 l=0.4
X94 a_339370_613888.t4 a_335807_622237.t13 pmu_circuits_0.iref_2nA_0.iref_2nA_igenerator_0.Ip2.t10 vccd1.t25 sky130_fd_pr__pfet_01v8_lvt ad=0.725 pd=5.58 as=0.725 ps=5.58 w=2.5 l=2
X95 vccd1.t34 vccd1.t31 vccd1.t33 vccd1.t32 sky130_fd_pr__pfet_01v8 ad=0.258 pd=2.36 as=0 ps=0 w=0.89 l=3.89
X96 a_343294_615747# pmu_circuits_0.ring_100mV_0.mdls_inv_1.OUT.t8 vdda1 vdda1 sky130_fd_pr__pfet_01v8_lvt ad=0.29 pd=2.58 as=0.29 ps=2.58 w=1 l=2
X97 a_341818_616595.t1 pmu_circuits_0.ring_100mV_0.mdls_inv_6.IN.t9 vssa1 vssa1 sky130_fd_pr__nfet_01v8_lvt ad=1.6 pd=11.6 as=1.6 ps=11.6 w=5.5 l=1
X98 a_339370_613888.t3 a_335807_622237.t14 pmu_circuits_0.iref_2nA_0.iref_2nA_igenerator_0.Ip2.t9 vccd1.t25 sky130_fd_pr__pfet_01v8_lvt ad=0.725 pd=5.58 as=0.725 ps=5.58 w=2.5 l=2
X99 gpio_analog[7].t1 gpio_analog[7].t0 vssa1 vssa1 sky130_fd_pr__nfet_01v8_lvt ad=1.48 pd=10.8 as=1.48 ps=10.8 w=5.1 l=0.66
X100 pmu_circuits_0.ring_100mV_0.mdls_inv_6.IN.t1 pmu_circuits_0.ring_100mV_0.mdls_inv_1.OUT.t9 a_341818_614929.t4 vssa1 sky130_fd_pr__nfet_01v8_lvt ad=1.6 pd=11.6 as=1.6 ps=11.6 w=5.5 l=0.8
X101 vccd1.t53 pmu_circuits_0.iref_2nA_0.iref_2nA_igenerator_0.Ip2.t17 a_339370_613888.t15 vccd1.t3 sky130_fd_pr__pfet_01v8_lvt ad=0.725 pd=5.58 as=0.725 ps=5.58 w=2.5 l=2
X102 pmu_circuits_0.ring_100mV_0.mdls_inv_2.IN pmu_circuits_0.ring_100mV_0.mdls_inv_4.IN.t10 a_341818_618261.t2 vssa1 sky130_fd_pr__nfet_01v8_lvt ad=1.6 pd=11.6 as=1.6 ps=11.6 w=5.5 l=0.8
X103 a_341818_614929.t0 pmu_circuits_0.ring_100mV_0.mdls_inv_1.OUT.t10 vssa1 vssa1 sky130_fd_pr__nfet_01v8_lvt ad=1.6 pd=11.6 as=1.6 ps=11.6 w=5.5 l=1
X104 pmu_circuits_0.ring_100mV_0.mdls_inv_6.IN.t0 pmu_circuits_0.ring_100mV_0.mdls_inv_1.OUT.t11 a_341818_614929.t3 vssa1 sky130_fd_pr__nfet_01v8_lvt ad=1.6 pd=11.6 as=1.6 ps=11.6 w=5.5 l=0.8
X105 a_345642_621038.t0 pmu_circuits_0.ring_100mV_0.mdls_inv_2.IN vssa1 vssa1 sky130_fd_pr__nfet_01v8_lvt ad=1.6 pd=11.6 as=1.6 ps=11.6 w=5.5 l=1
X106 pmu_circuits_0.ring_100mV_0.mdls_inv_6.IN.t2 pmu_circuits_0.ring_100mV_0.mdls_inv_1.OUT.t12 a_343294_615747# vdda1 sky130_fd_pr__pfet_01v8_lvt ad=0.29 pd=2.58 as=0.29 ps=2.58 w=1 l=0.8
X107 vccd1.t76 pmu_circuits_0.iref_2nA_0.iref_2nA_igenerator_0.Ip1.t5 a_337674_622496# vccd1.t21 sky130_fd_pr__pfet_01v8_lvt ad=0.725 pd=5.58 as=0.725 ps=5.58 w=2.5 l=2
X108 vccd1.t30 vccd1.t28 vccd1.t29 vccd1.t3 sky130_fd_pr__pfet_01v8_lvt ad=0 pd=0 as=0.145 ps=1.58 w=0.5 l=2
X109 a_337674_622496# a_335807_622237.t15 pmu_circuits_0.iref_2nA_0.iref_2nA_igenerator_0.Vg vccd1.t7 sky130_fd_pr__pfet_01v8_lvt ad=0.725 pd=5.58 as=0.725 ps=5.58 w=2.5 l=2
X110 vssa1 pmu_circuits_0.ring_100mV_0.mdls_inv_7.OUT a_345642_617706.t6 vdda1 sky130_fd_pr__pfet_01v8_lvt ad=0.29 pd=2.58 as=0.29 ps=2.58 w=1 l=0.8
X111 a_335807_622237.t4 a_335719_622037.t8 vssa1 vssa1 sky130_fd_pr__nfet_01v8_lvt ad=0.725 pd=5.58 as=0.725 ps=5.58 w=2.5 l=1
X112 vccd1.t60 pmu_circuits_0.iref_2nA_0.iref_2nA_igenerator_0.Ip2.t18 a_339370_613888.t14 vccd1.t3 sky130_fd_pr__pfet_01v8_lvt ad=0.725 pd=5.58 as=0.725 ps=5.58 w=2.5 l=2
X113 a_339370_617808# a_335807_622237.t16 a_335719_622037.t5 vccd1.t25 sky130_fd_pr__pfet_01v8_lvt ad=0.725 pd=5.58 as=0.725 ps=5.58 w=2.5 l=2
R7 vssa1 io_clamp_high[2] sky130_fd_pr__res_generic_m3 w=11 l=0.25
X114 gpio_analog[3].t7 a_341600_622217.t21 vssa1 vssa1 sky130_fd_pr__nfet_01v8_lvt ad=1.6 pd=11.6 as=1.6 ps=11.6 w=5.5 l=0.8
X115 vssa1 gpio_analog[7].t7 a_350942_613328.t5 vssa1 sky130_fd_pr__nfet_01v8_lvt ad=1.48 pd=10.8 as=1.48 ps=10.8 w=5.1 l=0.66
X116 pmu_circuits_0.ring_100mV_0.mdls_inv_7.OUT pmu_circuits_0.ring_100mV_0.mdls_inv_5.OUT a_345642_617706.t1 vssa1 sky130_fd_pr__nfet_01v8_lvt ad=1.6 pd=11.6 as=1.6 ps=11.6 w=5.5 l=0.8
X117 pmu_circuits_0.ring_100mV_0.mdls_inv_0.OUT.t0 pmu_circuits_0.ring_100mV_0.mdls_inv_0.IN a_345642_614374.t6 vssa1 sky130_fd_pr__nfet_01v8_lvt ad=1.6 pd=11.6 as=1.6 ps=11.6 w=5.5 l=0.8
X118 pmu_circuits_0.ring_100mV_0.mdls_inv_7.OUT pmu_circuits_0.ring_100mV_0.mdls_inv_5.OUT a_345642_617706.t0 vssa1 sky130_fd_pr__nfet_01v8_lvt ad=1.6 pd=11.6 as=1.6 ps=11.6 w=5.5 l=0.8
X119 vssa1 vssa1 vssa1 vssa1 sky130_fd_pr__nfet_01v8_lvt ad=0.725 pd=5.58 as=0 ps=0 w=2.5 l=1
X120 a_345642_619372.t6 pmu_circuits_0.ring_100mV_0.mdls_inv_2.OUT vssa1 vssa1 sky130_fd_pr__nfet_01v8_lvt ad=1.6 pd=11.6 as=1.6 ps=11.6 w=5.5 l=1
X121 a_339370_617808# a_335807_622237.t17 a_335719_622037.t4 vccd1.t25 sky130_fd_pr__pfet_01v8_lvt ad=0.725 pd=5.58 as=0.725 ps=5.58 w=2.5 l=2
X122 pmu_circuits_0.ring_100mV_0.mdls_inv_2.OUT pmu_circuits_0.ring_100mV_0.mdls_inv_2.IN a_345642_621038.t5 vssa1 sky130_fd_pr__nfet_01v8_lvt ad=1.6 pd=11.6 as=1.6 ps=11.6 w=5.5 l=0.8
X123 vccd1.t19 vccd1.t17 vccd1.t18 vccd1.t7 sky130_fd_pr__pfet_01v8_lvt ad=0 pd=0 as=0.145 ps=1.58 w=0.5 l=2
X124 pmu_circuits_0.ring_100mV_0.mdls_inv_2.OUT pmu_circuits_0.ring_100mV_0.mdls_inv_2.IN a_345642_621038.t4 vssa1 sky130_fd_pr__nfet_01v8_lvt ad=1.6 pd=11.6 as=1.6 ps=11.6 w=5.5 l=0.8
X125 a_345642_615404# pmu_circuits_0.ring_100mV_0.mdls_inv_7.OUT vdda1 vdda1 sky130_fd_pr__pfet_01v8_lvt ad=0.29 pd=2.58 as=0.29 ps=2.58 w=1 l=2
X126 pmu_circuits_0.ring_100mV_0.mdls_inv_3.OUT.t0 pmu_circuits_0.ring_100mV_0.mdls_inv_2.IN a_341818_619927.t2 vssa1 sky130_fd_pr__nfet_01v8_lvt ad=1.6 pd=11.6 as=1.6 ps=11.6 w=5.5 l=0.8
X127 gpio_analog[3].t6 a_341600_622217.t22 vssa1 vssa1 sky130_fd_pr__nfet_01v8_lvt ad=1.6 pd=11.6 as=1.6 ps=11.6 w=5.5 l=0.8
X128 vccd1.t27 vccd1.t24 vccd1.t26 vccd1.t25 sky130_fd_pr__pfet_01v8_lvt ad=0 pd=0 as=0.145 ps=1.58 w=0.5 l=2
X129 a_339370_613888.t2 a_335807_622237.t18 pmu_circuits_0.iref_2nA_0.iref_2nA_igenerator_0.Ip2.t7 vccd1.t25 sky130_fd_pr__pfet_01v8_lvt ad=0.725 pd=5.58 as=0.725 ps=5.58 w=2.5 l=2
X130 pmu_circuits_0.ring_100mV_0.mdls_inv_0.IN pmu_circuits_0.ring_100mV_0.mdls_inv_7.OUT a_345642_615404# vdda1 sky130_fd_pr__pfet_01v8_lvt ad=0.29 pd=2.58 as=0.29 ps=2.58 w=1 l=0.8