* NGSPICE file created from pmu_circuits.ext - technology: sky130A

.subckt pmu_circuits vref ldo_vs ldo_vb ldo_iref iref dd_02 ring_out ldo_out dd_01
+ ss
X0 iref_2nA_0.iref_2nA_igenerator_0.Ip2.t5 iref_2nA_0.iref_2nA_igenerator_0.Vg ss.t126 ss.t125 sky130_fd_pr__nfet_01v8_lvt ad=0.725 pd=5.58 as=0.725 ps=5.58 w=2.5 l=1
X1 dd_01.t20 a_1555_7968.t3 a_1555_7968.t4 dd_01.t18 sky130_fd_pr__pfet_01v8_lvt ad=0.725 pd=5.58 as=0.725 ps=5.58 w=2.5 l=2
X2 dd_02.t36 ring_100mV_0.mdls_inv_2.IN a_7406_13329# ss.t192 sky130_fd_pr__nfet_01v8_lvt ad=1.6 pd=11.6 as=1.6 ps=11.6 w=5.5 l=0.4
X3 ring_100mV_0.mdls_inv_5.OUT ring_100mV_0.mdls_inv_2.OUT a_9754_13622.t5 ss.t20 sky130_fd_pr__nfet_01v8_lvt ad=1.6 pd=11.6 as=1.6 ps=11.6 w=5.5 l=0.8
X4 ss.t97 ldo_iref.t2 ldo_iref.t3 ss.t96 sky130_fd_pr__nfet_01v8_lvt ad=1.48 pd=10.8 as=1.48 ps=10.8 w=5.1 l=0.66
X5 a_7406_11663# ring_100mV_0.mdls_inv_6.IN.t5 dd_02.t13 dd_02.t2 sky130_fd_pr__pfet_01v8_lvt ad=0.29 pd=2.58 as=0.29 ps=2.58 w=1 l=2
X6 dd_01.t31 iref_2nA_0.iref_2nA_igenerator_0.Ip1.t3 a_1786_15962# dd_01.t22 sky130_fd_pr__pfet_01v8_lvt ad=0.725 pd=5.58 as=0.725 ps=5.58 w=2.5 l=2
X7 dd_01.t73 dd_01.t71 dd_01.t72 dd_01.t22 sky130_fd_pr__pfet_01v8_lvt ad=0.145 pd=1.58 as=0 ps=0 w=0.5 l=2
X8 dd_01.t17 iref_2nA_0.iref_2nA_igenerator_0.Ip2.t12 a_3482_12058# dd_01.t3 sky130_fd_pr__pfet_01v8_lvt ad=0.725 pd=5.58 as=0.725 ps=5.58 w=2.5 l=2
X9 dd_02.t40 ring_100mV_0.mdls_inv_3.OUT.t5 a_7406_14995# ss.t215 sky130_fd_pr__nfet_01v8_lvt ad=1.6 pd=11.6 as=1.6 ps=11.6 w=5.5 l=0.4
X10 ss.t169 a_16150_16902.t6 vref.t3 ss.t168 sky130_fd_pr__nfet_01v8 ad=0.238 pd=2.22 as=0.238 ps=2.22 w=0.82 l=1.05
X11 ss.t24 ldo_iref.t4 a_14834_9380.t7 ss.t23 sky130_fd_pr__nfet_01v8_lvt ad=1.48 pd=10.8 as=1.48 ps=10.8 w=5.1 l=0.66
X12 ring_100mV_0.mdls_inv_0.OUT.t3 ring_100mV_0.mdls_inv_0.IN a_9754_8624.t1 ss.t159 sky130_fd_pr__nfet_01v8_lvt ad=1.6 pd=11.6 as=1.6 ps=11.6 w=5.5 l=0.8
X13 ring_100mV_0.mdls_inv_0.OUT.t2 ring_100mV_0.mdls_inv_0.IN a_9754_8624.t2 ss.t158 sky130_fd_pr__nfet_01v8_lvt ad=1.6 pd=11.6 as=1.6 ps=11.6 w=5.5 l=0.8
X14 ring_100mV_0.mdls_inv_1.OUT.t2 ring_100mV_0.mdls_inv_0.OUT.t5 a_7406_8331# dd_02.t2 sky130_fd_pr__pfet_01v8_lvt ad=0.29 pd=2.58 as=0.29 ps=2.58 w=1 l=0.8
X15 dd_01.t32 iref_2nA_0.iref_2nA_igenerator_0.Ip1.t4 a_1786_15962# dd_01.t22 sky130_fd_pr__pfet_01v8_lvt ad=0.725 pd=5.58 as=0.725 ps=5.58 w=2.5 l=2
X16 iref_2nA_0.iref_2nA_igenerator_0.VCTAT ss.t86 ss.t87 iref_2nA_0.iref_2nA_igenerator_0.VCTAT sky130_fd_pr__pfet_01v8 ad=0.58 pd=4.58 as=0.58 ps=4.58 w=2 l=0.5
X17 dd_01.t75 a_15054_7578.t6 a_14490_9380.t1 dd_01.t74 sky130_fd_pr__pfet_01v8 ad=0.258 pd=2.36 as=0.258 ps=2.36 w=0.89 l=3.89
X18 ring_100mV_0.mdls_inv_1.OUT.t4 ring_100mV_0.mdls_inv_0.OUT.t6 a_5930_7513.t3 ss.t0 sky130_fd_pr__nfet_01v8_lvt ad=1.6 pd=11.6 as=1.6 ps=11.6 w=5.5 l=0.8
X19 ring_100mV_0.mdls_inv_1.OUT.t3 ring_100mV_0.mdls_inv_0.OUT.t7 a_5930_7513.t2 ss.t147 sky130_fd_pr__nfet_01v8_lvt ad=1.6 pd=11.6 as=1.6 ps=11.6 w=5.5 l=0.8
X20 dd_01.t36 a_15054_7578.t2 a_15054_7578.t3 dd_01.t35 sky130_fd_pr__pfet_01v8 ad=0.258 pd=2.36 as=0.258 ps=2.36 w=0.89 l=3.89
X21 a_9754_11956.t6 ring_100mV_0.mdls_inv_5.OUT ss.t209 ss.t208 sky130_fd_pr__nfet_01v8_lvt ad=1.6 pd=11.6 as=1.6 ps=11.6 w=5.5 l=1
X22 dd_01.t70 dd_01.t68 a_955_10311.t1 dd_01.t69 sky130_fd_pr__pfet_01v8_lvt ad=0.145 pd=1.58 as=0.145 ps=1.58 w=0.5 l=4
X23 ring_out.t19 a_5712_16467.t10 ss.t7 ss.t6 sky130_fd_pr__nfet_01v8_lvt ad=1.6 pd=11.6 as=1.6 ps=11.6 w=5.5 l=0.8
X24 a_5712_16467.t1 ring_100mV_0.mdls_inv_3.OUT.t6 dd_02.t42 dd_02.t41 sky130_fd_pr__pfet_01v8_lvt ad=0.29 pd=2.58 as=0.29 ps=2.58 w=1 l=0.8
X25 iref_2nA_0.iref_2nA_igenerator_0.Vg a_n169_16287.t6 ss.t106 ss.t105 sky130_fd_pr__nfet_01v8_lvt ad=0.725 pd=5.58 as=0.725 ps=5.58 w=2.5 l=1
X26 a_9754_14652# ring_100mV_0.mdls_inv_2.IN dd_02.t35 dd_02.t5 sky130_fd_pr__pfet_01v8_lvt ad=0.29 pd=2.58 as=0.29 ps=2.58 w=1 l=2
X27 dd_01.t67 dd_01.t64 dd_01.t66 dd_01.t65 sky130_fd_pr__pfet_01v8 ad=0 pd=0 as=0.258 ps=2.36 w=0.89 l=3.89
X28 a_9754_15288.t6 ring_100mV_0.mdls_inv_2.IN ss.t191 ss.t190 sky130_fd_pr__nfet_01v8_lvt ad=1.6 pd=11.6 as=1.6 ps=11.6 w=5.5 l=1
X29 a_5930_7513.t5 ring_100mV_0.mdls_inv_0.OUT.t8 ss.t51 ss.t50 sky130_fd_pr__nfet_01v8_lvt ad=1.6 pd=11.6 as=1.6 ps=11.6 w=5.5 l=1
X30 ss.t227 ring_100mV_0.mdls_inv_3.OUT.t7 a_5930_14177.t0 dd_02.t2 sky130_fd_pr__pfet_01v8_lvt ad=0.29 pd=2.58 as=0.29 ps=2.58 w=1 l=0.8
X31 a_5930_14177.t6 ring_100mV_0.mdls_inv_2.IN ss.t189 ss.t188 sky130_fd_pr__nfet_01v8_lvt ad=1.6 pd=11.6 as=1.6 ps=11.6 w=5.5 l=1
X32 dd_02.t28 ring_100mV_0.mdls_inv_0.OUT.t9 a_9754_7988# ss.t146 sky130_fd_pr__nfet_01v8_lvt ad=1.6 pd=11.6 as=1.6 ps=11.6 w=5.5 l=0.4
X33 dd_01.t63 dd_01.t61 dd_01.t62 dd_01.t3 sky130_fd_pr__pfet_01v8_lvt ad=0.145 pd=1.58 as=0 ps=0 w=0.5 l=2
X34 ring_out.t18 a_5712_16467.t11 ss.t118 ss.t117 sky130_fd_pr__nfet_01v8_lvt ad=1.6 pd=11.6 as=1.6 ps=11.6 w=5.5 l=0.8
X35 ring_100mV_0.mdls_inv_4.IN.t3 ring_100mV_0.mdls_inv_6.IN.t6 a_5930_10845.t2 ss.t130 sky130_fd_pr__nfet_01v8_lvt ad=1.6 pd=11.6 as=1.6 ps=11.6 w=5.5 l=0.8
X36 dd_01.t38 a_14490_9380.t4 ldo_out.t4 dd_01.t37 sky130_fd_pr__pfet_01v8_lvt ad=1.5 pd=10.9 as=1.5 ps=10.9 w=5.17 l=0.37
X37 a_3482_8138.t9 a_n81_16487.t6 iref_2nA_0.iref_2nA_igenerator_0.Ip2.t8 dd_01.t0 sky130_fd_pr__pfet_01v8_lvt ad=0.725 pd=5.58 as=0.725 ps=5.58 w=2.5 l=2
X38 ring_100mV_0.mdls_inv_2.OUT ring_100mV_0.mdls_inv_2.IN a_9754_15288.t4 ss.t187 sky130_fd_pr__nfet_01v8_lvt ad=1.6 pd=11.6 as=1.6 ps=11.6 w=5.5 l=0.8
X39 ss.t108 ring_100mV_0.mdls_inv_3.OUT.t8 a_5712_16467.t9 ss.t107 sky130_fd_pr__nfet_01v8_lvt ad=1.6 pd=11.6 as=1.6 ps=11.6 w=5.5 l=0.8
X40 dd_01.t19 a_1555_7968.t1 a_1555_7968.t2 dd_01.t18 sky130_fd_pr__pfet_01v8_lvt ad=0.725 pd=5.58 as=0.725 ps=5.58 w=2.5 l=2
X41 ring_100mV_0.mdls_inv_0.IN ring_100mV_0.mdls_inv_7.OUT a_9754_10290.t5 ss.t36 sky130_fd_pr__nfet_01v8_lvt ad=1.6 pd=11.6 as=1.6 ps=11.6 w=5.5 l=0.8
X42 ss.t144 ring_100mV_0.mdls_inv_0.OUT.t10 a_9754_8624.t0 dd_02.t5 sky130_fd_pr__pfet_01v8_lvt ad=0.29 pd=2.58 as=0.29 ps=2.58 w=1 l=0.8
X43 a_9754_13622.t1 ring_100mV_0.mdls_inv_2.OUT ss.t19 ss.t18 sky130_fd_pr__nfet_01v8_lvt ad=1.6 pd=11.6 as=1.6 ps=11.6 w=5.5 l=1
X44 dd_01.t16 iref_2nA_0.iref_2nA_igenerator_0.Ip2.t13 a_3482_8138.t19 dd_01.t3 sky130_fd_pr__pfet_01v8_lvt ad=0.725 pd=5.58 as=0.725 ps=5.58 w=2.5 l=2
X45 dd_01.t15 iref_2nA_0.iref_2nA_igenerator_0.Ip2.t14 a_3482_12842# dd_01.t3 sky130_fd_pr__pfet_01v8_lvt ad=0.725 pd=5.58 as=0.725 ps=5.58 w=2.5 l=2
X46 ring_out.t17 a_5712_16467.t12 ss.t226 ss.t225 sky130_fd_pr__nfet_01v8_lvt ad=1.6 pd=11.6 as=1.6 ps=11.6 w=5.5 l=0.8
X47 dd_02.t31 ring_100mV_0.mdls_inv_0.IN a_9754_9654# ss.t157 sky130_fd_pr__nfet_01v8_lvt ad=1.6 pd=11.6 as=1.6 ps=11.6 w=5.5 l=0.4
X48 ring_100mV_0.mdls_inv_6.IN.t3 ring_100mV_0.mdls_inv_1.OUT.t5 a_5930_9179.t4 ss.t222 sky130_fd_pr__nfet_01v8_lvt ad=1.6 pd=11.6 as=1.6 ps=11.6 w=5.5 l=0.8
X49 ss.t95 ss.t92 ss.t94 ss.t93 sky130_fd_pr__nfet_01v8_lvt ad=0 pd=0 as=1.48 ps=10.8 w=5.1 l=0.66
X50 ss.t22 ring_100mV_0.mdls_inv_3.OUT.t9 a_5712_16467.t8 ss.t21 sky130_fd_pr__nfet_01v8_lvt ad=1.6 pd=11.6 as=1.6 ps=11.6 w=5.5 l=0.8
X51 a_1786_16746# a_n81_16487.t7 iref_2nA_0.iref_2nA_igenerator_0.Vg dd_01.t24 sky130_fd_pr__pfet_01v8_lvt ad=0.725 pd=5.58 as=0.725 ps=5.58 w=2.5 l=2
X52 w_583_11504# w_583_11504# ss.t8 w_583_11504# sky130_fd_pr__pfet_01v8_lvt ad=0.255 pd=2.34 as=0.255 ps=2.34 w=0.88 l=6.97
X53 ring_100mV_0.mdls_inv_2.IN ring_100mV_0.mdls_inv_4.IN.t5 a_7406_13329# dd_02.t2 sky130_fd_pr__pfet_01v8_lvt ad=0.29 pd=2.58 as=0.29 ps=2.58 w=1 l=0.8
X54 a_7406_8331# ring_100mV_0.mdls_inv_0.OUT.t11 dd_02.t43 dd_02.t2 sky130_fd_pr__pfet_01v8_lvt ad=0.29 pd=2.58 as=0.29 ps=2.58 w=1 l=2
X55 a_3482_8138.t8 a_n81_16487.t8 iref_2nA_0.iref_2nA_igenerator_0.Ip2.t7 dd_01.t0 sky130_fd_pr__pfet_01v8_lvt ad=0.725 pd=5.58 as=0.725 ps=5.58 w=2.5 l=2
X56 a_15054_7578.t5 ldo_iref.t5 ss.t41 ss.t40 sky130_fd_pr__nfet_01v8_lvt ad=1.48 pd=10.8 as=1.48 ps=10.8 w=5.1 l=0.66
X57 iref_2nA_0.iref_2nA_igenerator_0.Vg a_n169_16287.t7 ss.t116 ss.t115 sky130_fd_pr__nfet_01v8_lvt ad=0.725 pd=5.58 as=0.725 ps=5.58 w=2.5 l=1
X58 ss.t91 ss.t88 ss.t90 ss.t89 sky130_fd_pr__nfet_01v8_lvt ad=0.725 pd=5.58 as=0 ps=0 w=2.5 l=1
X59 dd_01.t14 iref_2nA_0.iref_2nA_igenerator_0.Ip2.t15 a_3482_8138.t18 dd_01.t3 sky130_fd_pr__pfet_01v8_lvt ad=0.725 pd=5.58 as=0.725 ps=5.58 w=2.5 l=2
X60 dd_01.t21 a_16150_16902.t4 a_16150_16902.t5 ss.t47 sky130_fd_pr__nfet_01v8_lvt ad=1.74 pd=12.6 as=1.74 ps=12.6 w=6 l=0.89
X61 ring_100mV_0.mdls_inv_2.IN ring_100mV_0.mdls_inv_4.IN.t6 a_5930_12511.t5 ss.t171 sky130_fd_pr__nfet_01v8_lvt ad=1.6 pd=11.6 as=1.6 ps=11.6 w=5.5 l=0.8
X62 a_3482_12842# a_n81_16487.t9 iref.t1 dd_01.t0 sky130_fd_pr__pfet_01v8_lvt ad=0.725 pd=5.58 as=0.725 ps=5.58 w=2.5 l=2
X63 ring_100mV_0.mdls_inv_2.IN ring_100mV_0.mdls_inv_4.IN.t7 a_5930_12511.t4 ss.t148 sky130_fd_pr__nfet_01v8_lvt ad=1.6 pd=11.6 as=1.6 ps=11.6 w=5.5 l=0.8
X64 dd_02.t11 ring_100mV_0.mdls_inv_4.IN.t8 a_7406_11663# ss.t37 sky130_fd_pr__nfet_01v8_lvt ad=1.6 pd=11.6 as=1.6 ps=11.6 w=5.5 l=0.4
X65 dd_01.t13 iref_2nA_0.iref_2nA_igenerator_0.Ip2.t16 a_3482_8138.t17 dd_01.t3 sky130_fd_pr__pfet_01v8_lvt ad=0.725 pd=5.58 as=0.725 ps=5.58 w=2.5 l=2
X66 dd_01.t28 a_16150_16902.t2 a_16150_16902.t3 ss.t109 sky130_fd_pr__nfet_01v8_lvt ad=1.74 pd=12.6 as=1.74 ps=12.6 w=6 l=0.89
X67 ring_100mV_0.mdls_inv_3.OUT.t3 ring_100mV_0.mdls_inv_2.IN a_7406_14995# dd_02.t2 sky130_fd_pr__pfet_01v8_lvt ad=0.29 pd=2.58 as=0.29 ps=2.58 w=1 l=0.8
X68 ss.t156 ring_100mV_0.mdls_inv_0.IN a_9754_10290.t6 dd_02.t5 sky130_fd_pr__pfet_01v8_lvt ad=0.29 pd=2.58 as=0.29 ps=2.58 w=1 l=0.8
X69 ring_100mV_0.mdls_inv_0.IN ring_100mV_0.mdls_inv_7.OUT a_9754_10290.t4 ss.t35 sky130_fd_pr__nfet_01v8_lvt ad=1.6 pd=11.6 as=1.6 ps=11.6 w=5.5 l=0.8
X70 dd_02.t26 ring_100mV_0.mdls_inv_6.IN.t7 a_7406_9997# ss.t127 sky130_fd_pr__nfet_01v8_lvt ad=1.6 pd=11.6 as=1.6 ps=11.6 w=5.5 l=0.4
X71 ring_out.t16 a_5712_16467.t13 ss.t100 ss.t99 sky130_fd_pr__nfet_01v8_lvt ad=1.6 pd=11.6 as=1.6 ps=11.6 w=5.5 l=0.8
X72 a_9754_15288.t5 ring_100mV_0.mdls_inv_2.IN ss.t186 ss.t185 sky130_fd_pr__nfet_01v8_lvt ad=1.6 pd=11.6 as=1.6 ps=11.6 w=5.5 l=1
X73 ring_out.t15 a_5712_16467.t14 ss.t104 ss.t103 sky130_fd_pr__nfet_01v8_lvt ad=1.6 pd=11.6 as=1.6 ps=11.6 w=5.5 l=0.8
X74 ss.t207 ring_100mV_0.mdls_inv_5.OUT a_9754_13622.t6 dd_02.t5 sky130_fd_pr__pfet_01v8_lvt ad=0.29 pd=2.58 as=0.29 ps=2.58 w=1 l=0.8
X75 dd_02.t39 ring_100mV_0.mdls_inv_5.OUT a_9754_12986# ss.t206 sky130_fd_pr__nfet_01v8_lvt ad=1.6 pd=11.6 as=1.6 ps=11.6 w=5.5 l=0.4
X76 dd_02.t23 a_5712_16467.t15 ring_out.t3 dd_02.t22 sky130_fd_pr__pfet_01v8_lvt ad=0.29 pd=2.58 as=0.29 ps=2.58 w=1 l=0.8
X77 iref_2nA_0.iref_2nA_igenerator_0.Ip2.t4 iref_2nA_0.iref_2nA_igenerator_0.Vg ss.t124 ss.t123 sky130_fd_pr__nfet_01v8_lvt ad=0.725 pd=5.58 as=0.725 ps=5.58 w=2.5 l=1
X78 ring_100mV_0.mdls_inv_0.OUT.t1 ring_100mV_0.mdls_inv_0.IN a_9754_8624.t6 ss.t155 sky130_fd_pr__nfet_01v8_lvt ad=1.6 pd=11.6 as=1.6 ps=11.6 w=5.5 l=0.8
X79 dd_02.t7 ring_100mV_0.mdls_inv_2.OUT a_9754_14652# ss.t17 sky130_fd_pr__nfet_01v8_lvt ad=1.6 pd=11.6 as=1.6 ps=11.6 w=5.5 l=0.4
X80 ring_100mV_0.mdls_inv_0.OUT.t0 ring_100mV_0.mdls_inv_0.IN a_9754_8624.t5 ss.t154 sky130_fd_pr__nfet_01v8_lvt ad=1.6 pd=11.6 as=1.6 ps=11.6 w=5.5 l=0.8
X81 a_9754_11320# ring_100mV_0.mdls_inv_5.OUT dd_02.t38 dd_02.t5 sky130_fd_pr__pfet_01v8_lvt ad=0.29 pd=2.58 as=0.29 ps=2.58 w=1 l=2
X82 dd_01.t12 iref_2nA_0.iref_2nA_igenerator_0.Ip2.t17 a_3482_8138.t16 dd_01.t3 sky130_fd_pr__pfet_01v8_lvt ad=0.725 pd=5.58 as=0.725 ps=5.58 w=2.5 l=2
X83 vref.t4 a_16150_16902.t0 a_16150_16902.t1 ss.t220 sky130_fd_pr__nfet_01v8_lvt ad=0.499 pd=4.02 as=0.499 ps=4.02 w=1.72 l=3.1
X84 vref.t2 vref.t0 vref.t1 dd_01.t76 sky130_fd_pr__pfet_01v8_lvt ad=0 pd=0 as=8.6 ps=19.2 w=8.6 l=0.35
X85 ss.t85 ss.t82 ss.t84 ss.t83 sky130_fd_pr__nfet_01v8_lvt ad=0 pd=0 as=0.725 ps=5.58 w=2.5 l=1
X86 a_9754_8624.t4 ring_100mV_0.mdls_inv_0.IN ss.t153 ss.t152 sky130_fd_pr__nfet_01v8_lvt ad=1.6 pd=11.6 as=1.6 ps=11.6 w=5.5 l=1
X87 ring_100mV_0.mdls_inv_1.OUT.t1 ring_100mV_0.mdls_inv_0.OUT.t12 a_5930_7513.t1 ss.t161 sky130_fd_pr__nfet_01v8_lvt ad=1.6 pd=11.6 as=1.6 ps=11.6 w=5.5 l=0.8
X88 ring_out.t14 a_5712_16467.t16 ss.t211 ss.t210 sky130_fd_pr__nfet_01v8_lvt ad=1.6 pd=11.6 as=1.6 ps=11.6 w=5.5 l=0.8
X89 ring_100mV_0.mdls_inv_1.OUT.t0 ring_100mV_0.mdls_inv_0.OUT.t13 a_5930_7513.t0 ss.t160 sky130_fd_pr__nfet_01v8_lvt ad=1.6 pd=11.6 as=1.6 ps=11.6 w=5.5 l=0.8
X90 a_3482_8138.t7 a_n81_16487.t10 iref_2nA_0.iref_2nA_igenerator_0.Ip2.t1 dd_01.t0 sky130_fd_pr__pfet_01v8_lvt ad=0.725 pd=5.58 as=0.725 ps=5.58 w=2.5 l=2
X91 a_1786_16746# a_n81_16487.t11 iref_2nA_0.iref_2nA_igenerator_0.Vg dd_01.t24 sky130_fd_pr__pfet_01v8_lvt ad=0.725 pd=5.58 as=0.725 ps=5.58 w=2.5 l=2
X92 dd_01.t60 dd_01.t58 dd_01.t59 dd_01.t0 sky130_fd_pr__pfet_01v8_lvt ad=0 pd=0 as=0.145 ps=1.58 w=0.5 l=2
X93 a_3482_8138.t6 a_n81_16487.t12 iref_2nA_0.iref_2nA_igenerator_0.Ip2.t10 dd_01.t0 sky130_fd_pr__pfet_01v8_lvt ad=0.725 pd=5.58 as=0.725 ps=5.58 w=2.5 l=2
X94 a_7406_13329# ring_100mV_0.mdls_inv_4.IN.t9 dd_02.t14 dd_02.t2 sky130_fd_pr__pfet_01v8_lvt ad=0.29 pd=2.58 as=0.29 ps=2.58 w=1 l=2
X95 a_14834_9380.t1 ldo_vb.t0 a_14490_9380.t3 ss.t170 sky130_fd_pr__nfet_01v8_lvt ad=1.51 pd=11 as=1.51 ps=11 w=5.19 l=1.43
X96 ring_100mV_0.mdls_inv_2.OUT ring_100mV_0.mdls_inv_2.IN a_9754_15288.t3 ss.t184 sky130_fd_pr__nfet_01v8_lvt ad=1.6 pd=11.6 as=1.6 ps=11.6 w=5.5 l=0.8
X97 ring_100mV_0.mdls_inv_7.OUT ring_100mV_0.mdls_inv_5.OUT a_9754_11956.t4 ss.t205 sky130_fd_pr__nfet_01v8_lvt ad=1.6 pd=11.6 as=1.6 ps=11.6 w=5.5 l=0.8
X98 ring_100mV_0.mdls_inv_2.OUT ring_100mV_0.mdls_inv_2.IN a_9754_15288.t2 ss.t183 sky130_fd_pr__nfet_01v8_lvt ad=1.6 pd=11.6 as=1.6 ps=11.6 w=5.5 l=0.8
X99 ss.t102 ring_100mV_0.mdls_inv_4.IN.t10 a_5930_10845.t6 dd_02.t2 sky130_fd_pr__pfet_01v8_lvt ad=0.29 pd=2.58 as=0.29 ps=2.58 w=1 l=0.8
X100 ring_100mV_0.mdls_inv_0.OUT.t4 ring_100mV_0.mdls_inv_0.IN a_9754_7988# dd_02.t5 sky130_fd_pr__pfet_01v8_lvt ad=0.29 pd=2.58 as=0.29 ps=2.58 w=1 l=0.8
X101 ring_100mV_0.mdls_inv_0.IN ring_100mV_0.mdls_inv_7.OUT a_9754_10290.t3 ss.t34 sky130_fd_pr__nfet_01v8_lvt ad=1.6 pd=11.6 as=1.6 ps=11.6 w=5.5 l=0.8
X102 ring_100mV_0.mdls_inv_3.OUT.t0 ring_100mV_0.mdls_inv_2.IN a_5930_14177.t4 ss.t182 sky130_fd_pr__nfet_01v8_lvt ad=1.6 pd=11.6 as=1.6 ps=11.6 w=5.5 l=0.8
X103 ring_100mV_0.mdls_inv_0.IN ring_100mV_0.mdls_inv_7.OUT a_9754_10290.t2 ss.t33 sky130_fd_pr__nfet_01v8_lvt ad=1.6 pd=11.6 as=1.6 ps=11.6 w=5.5 l=0.8
X104 iref_2nA_0.iref_2nA_igenerator_0.Ip1.t1 iref_2nA_0.iref_2nA_igenerator_0.Vg a_828_14113# ss.t122 sky130_fd_pr__nfet_01v8_lvt ad=0.725 pd=5.58 as=0.725 ps=5.58 w=2.5 l=1
X105 ss.t57 ldo_iref.t6 a_14834_9380.t6 ss.t56 sky130_fd_pr__nfet_01v8_lvt ad=1.48 pd=10.8 as=1.48 ps=10.8 w=5.1 l=0.66
X106 dd_02.t12 ring_100mV_0.mdls_inv_4.IN.t11 a_7406_11663# ss.t44 sky130_fd_pr__nfet_01v8_lvt ad=1.6 pd=11.6 as=1.6 ps=11.6 w=5.5 l=0.4
X107 ss.t16 ring_100mV_0.mdls_inv_2.OUT a_9754_15288.t0 dd_02.t5 sky130_fd_pr__pfet_01v8_lvt ad=0.29 pd=2.58 as=0.29 ps=2.58 w=1 l=0.8
X108 ring_100mV_0.mdls_inv_6.IN.t0 ring_100mV_0.mdls_inv_1.OUT.t6 a_7406_9997# dd_02.t2 sky130_fd_pr__pfet_01v8_lvt ad=0.29 pd=2.58 as=0.29 ps=2.58 w=1 l=0.8
X109 ring_100mV_0.mdls_inv_6.IN.t1 ring_100mV_0.mdls_inv_1.OUT.t7 a_5930_9179.t3 ss.t112 sky130_fd_pr__nfet_01v8_lvt ad=1.6 pd=11.6 as=1.6 ps=11.6 w=5.5 l=0.8
X110 ring_100mV_0.mdls_inv_6.IN.t2 ring_100mV_0.mdls_inv_1.OUT.t8 a_5930_9179.t2 ss.t214 sky130_fd_pr__nfet_01v8_lvt ad=1.6 pd=11.6 as=1.6 ps=11.6 w=5.5 l=0.8
X111 ring_100mV_0.mdls_inv_2.OUT ring_100mV_0.mdls_inv_2.IN a_9754_15288.t1 ss.t181 sky130_fd_pr__nfet_01v8_lvt ad=1.6 pd=11.6 as=1.6 ps=11.6 w=5.5 l=0.8
X112 a_n169_16287.t4 a_n169_16287.t3 ss.t120 ss.t119 sky130_fd_pr__nfet_01v8_lvt ad=0.725 pd=5.58 as=0.725 ps=5.58 w=2.5 l=1
X113 dd_02.t3 ring_100mV_0.mdls_inv_3.OUT.t10 a_7406_14995# ss.t9 sky130_fd_pr__nfet_01v8_lvt ad=1.6 pd=11.6 as=1.6 ps=11.6 w=5.5 l=0.4
X114 ss.t139 ldo_iref.t7 a_15054_7578.t4 ss.t138 sky130_fd_pr__nfet_01v8_lvt ad=1.48 pd=10.8 as=1.48 ps=10.8 w=5.1 l=0.66
X115 dd_01.t11 iref_2nA_0.iref_2nA_igenerator_0.Ip2.t18 a_3482_8138.t15 dd_01.t3 sky130_fd_pr__pfet_01v8_lvt ad=0.725 pd=5.58 as=0.725 ps=5.58 w=2.5 l=2
X116 ring_out.t13 a_5712_16467.t17 ss.t198 ss.t197 sky130_fd_pr__nfet_01v8_lvt ad=1.6 pd=11.6 as=1.6 ps=11.6 w=5.5 l=0.8
X117 dd_02.t1 ring_100mV_0.mdls_inv_3.OUT.t11 a_5712_16467.t0 dd_02.t0 sky130_fd_pr__pfet_01v8_lvt ad=0.29 pd=2.58 as=0.29 ps=2.58 w=1 l=0.8
X118 a_828_14113# iref_2nA_0.iref_2nA_igenerator_0.VCTAT ss.t63 ss.t62 sky130_fd_pr__nfet_01v8_lvt ad=0.29 pd=2.58 as=0.29 ps=2.58 w=1 l=5
X119 dd_02.t27 ring_100mV_0.mdls_inv_1.OUT.t9 a_7406_8331# ss.t145 sky130_fd_pr__nfet_01v8_lvt ad=1.6 pd=11.6 as=1.6 ps=11.6 w=5.5 l=0.4
X120 dd_01.t25 iref_2nA_0.iref_2nA_igenerator_0.Ip1.t5 a_1786_16746# dd_01.t22 sky130_fd_pr__pfet_01v8_lvt ad=0.725 pd=5.58 as=0.725 ps=5.58 w=2.5 l=2
X121 a_3482_8138.t5 a_n81_16487.t13 iref_2nA_0.iref_2nA_igenerator_0.Ip2.t3 dd_01.t0 sky130_fd_pr__pfet_01v8_lvt ad=0.725 pd=5.58 as=0.725 ps=5.58 w=2.5 l=2
X122 a_3482_12058# a_n81_16487.t14 a_n169_16287.t0 dd_01.t0 sky130_fd_pr__pfet_01v8_lvt ad=0.725 pd=5.58 as=0.725 ps=5.58 w=2.5 l=2
X123 a_955_10311.t0 w_583_11504# iref_2nA_0.iref_2nA_igenerator_0.VCTAT dd_01.t2 sky130_fd_pr__pfet_01v8_lvt ad=0.995 pd=7.44 as=0.995 ps=7.44 w=3.43 l=2.77
X124 ss.t5 ring_100mV_0.mdls_inv_3.OUT.t12 a_5712_16467.t7 ss.t4 sky130_fd_pr__nfet_01v8_lvt ad=1.6 pd=11.6 as=1.6 ps=11.6 w=5.5 l=0.8
X125 dd_01.t57 dd_01.t54 dd_01.t56 dd_01.t55 sky130_fd_pr__pfet_01v8 ad=0.258 pd=2.36 as=0 ps=0 w=0.89 l=3.89
X126 a_3482_8138.t4 a_n81_16487.t15 iref_2nA_0.iref_2nA_igenerator_0.Ip2.t6 dd_01.t0 sky130_fd_pr__pfet_01v8_lvt ad=0.725 pd=5.58 as=0.725 ps=5.58 w=2.5 l=2
X127 a_5930_12511.t1 ring_100mV_0.mdls_inv_4.IN.t12 ss.t134 ss.t133 sky130_fd_pr__nfet_01v8_lvt ad=1.6 pd=11.6 as=1.6 ps=11.6 w=5.5 l=1
X128 dd_01.t27 a_15054_7578.t0 a_15054_7578.t1 dd_01.t26 sky130_fd_pr__pfet_01v8 ad=0.258 pd=2.36 as=0.258 ps=2.36 w=0.89 l=3.89
X129 ring_100mV_0.mdls_inv_5.OUT ring_100mV_0.mdls_inv_2.OUT a_9754_12986# dd_02.t5 sky130_fd_pr__pfet_01v8_lvt ad=0.29 pd=2.58 as=0.29 ps=2.58 w=1 l=0.8
X130 a_5930_9179.t6 ring_100mV_0.mdls_inv_1.OUT.t10 ss.t59 ss.t58 sky130_fd_pr__nfet_01v8_lvt ad=1.6 pd=11.6 as=1.6 ps=11.6 w=5.5 l=1
X131 ring_100mV_0.mdls_inv_6.IN.t4 ring_100mV_0.mdls_inv_1.OUT.t11 a_5930_9179.t1 ss.t232 sky130_fd_pr__nfet_01v8_lvt ad=1.6 pd=11.6 as=1.6 ps=11.6 w=5.5 l=0.8
X132 dd_01.t30 a_15054_7578.t7 a_14490_9380.t0 dd_01.t29 sky130_fd_pr__pfet_01v8 ad=0.258 pd=2.36 as=0.258 ps=2.36 w=0.89 l=3.89
X133 a_n81_16487.t5 a_n169_16287.t8 ss.t213 ss.t212 sky130_fd_pr__nfet_01v8_lvt ad=0.725 pd=5.58 as=0.725 ps=5.58 w=2.5 l=1
X134 dd_02.t10 ring_100mV_0.mdls_inv_7.OUT a_9754_11320# ss.t32 sky130_fd_pr__nfet_01v8_lvt ad=1.6 pd=11.6 as=1.6 ps=11.6 w=5.5 l=0.4
X135 dd_01.t53 dd_01.t51 dd_01.t52 dd_01.t24 sky130_fd_pr__pfet_01v8_lvt ad=0 pd=0 as=0.145 ps=1.58 w=0.5 l=2
X136 a_9754_7988# ring_100mV_0.mdls_inv_0.IN dd_02.t30 dd_02.t5 sky130_fd_pr__pfet_01v8_lvt ad=0.29 pd=2.58 as=0.29 ps=2.58 w=1 l=2
X137 ring_100mV_0.mdls_inv_4.IN.t4 ring_100mV_0.mdls_inv_6.IN.t8 a_7406_11663# dd_02.t2 sky130_fd_pr__pfet_01v8_lvt ad=0.29 pd=2.58 as=0.29 ps=2.58 w=1 l=0.8
X138 ss.t81 ss.t78 ss.t80 ss.t79 sky130_fd_pr__nfet_01v8_lvt ad=0.725 pd=5.58 as=0 ps=0 w=2.5 l=1
X139 ring_out.t12 a_5712_16467.t18 ss.t46 ss.t45 sky130_fd_pr__nfet_01v8_lvt ad=1.6 pd=11.6 as=1.6 ps=11.6 w=5.5 l=0.8
X140 dd_01.t10 iref_2nA_0.iref_2nA_igenerator_0.Ip2.t19 a_3482_8138.t14 dd_01.t3 sky130_fd_pr__pfet_01v8_lvt ad=0.725 pd=5.58 as=0.725 ps=5.58 w=2.5 l=2
X141 ring_out.t2 a_5712_16467.t19 dd_02.t17 dd_02.t16 sky130_fd_pr__pfet_01v8_lvt ad=0.29 pd=2.58 as=0.29 ps=2.58 w=1 l=0.8
X142 dd_02.t29 ring_100mV_0.mdls_inv_0.IN a_9754_9654# ss.t151 sky130_fd_pr__nfet_01v8_lvt ad=1.6 pd=11.6 as=1.6 ps=11.6 w=5.5 l=0.4
X143 ring_100mV_0.mdls_inv_2.OUT ring_100mV_0.mdls_inv_2.IN a_9754_14652# dd_02.t5 sky130_fd_pr__pfet_01v8_lvt ad=0.29 pd=2.58 as=0.29 ps=2.58 w=1 l=0.8
X144 a_14834_9380.t5 ldo_iref.t8 ss.t141 ss.t140 sky130_fd_pr__nfet_01v8_lvt ad=1.48 pd=10.8 as=1.48 ps=10.8 w=5.1 l=0.66
X145 a_14834_9380.t0 ldo_vb.t1 a_14490_9380.t2 ss.t170 sky130_fd_pr__nfet_01v8_lvt ad=1.51 pd=11 as=1.51 ps=11 w=5.19 l=1.43
X146 a_5930_10845.t4 ring_100mV_0.mdls_inv_6.IN.t9 ss.t194 ss.t193 sky130_fd_pr__nfet_01v8_lvt ad=1.6 pd=11.6 as=1.6 ps=11.6 w=5.5 l=1
X147 a_5930_7513.t4 ring_100mV_0.mdls_inv_0.OUT.t14 ss.t196 ss.t195 sky130_fd_pr__nfet_01v8_lvt ad=1.6 pd=11.6 as=1.6 ps=11.6 w=5.5 l=1
X148 dd_01.t23 iref_2nA_0.iref_2nA_igenerator_0.Ip1.t6 a_1786_16746# dd_01.t22 sky130_fd_pr__pfet_01v8_lvt ad=0.725 pd=5.58 as=0.725 ps=5.58 w=2.5 l=2
X149 ring_out.t11 a_5712_16467.t20 ss.t53 ss.t52 sky130_fd_pr__nfet_01v8_lvt ad=1.6 pd=11.6 as=1.6 ps=11.6 w=5.5 l=0.8
X150 dd_02.t34 ring_100mV_0.mdls_inv_2.IN a_7406_13329# ss.t180 sky130_fd_pr__nfet_01v8_lvt ad=1.6 pd=11.6 as=1.6 ps=11.6 w=5.5 l=0.4
X151 a_14834_9380.t4 ldo_iref.t9 ss.t219 ss.t218 sky130_fd_pr__nfet_01v8_lvt ad=1.48 pd=10.8 as=1.48 ps=10.8 w=5.1 l=0.66
X152 dd_01.t34 a_955_10311.t2 w_583_11504# dd_01.t33 sky130_fd_pr__pfet_01v8 ad=0.687 pd=5.32 as=0.687 ps=5.32 w=2.37 l=4.38
X153 dd_01.t9 iref_2nA_0.iref_2nA_igenerator_0.Ip2.t20 a_3482_12842# dd_01.t3 sky130_fd_pr__pfet_01v8_lvt ad=0.725 pd=5.58 as=0.725 ps=5.58 w=2.5 l=2
X154 ring_100mV_0.mdls_inv_3.OUT.t2 ring_100mV_0.mdls_inv_2.IN a_5930_14177.t3 ss.t179 sky130_fd_pr__nfet_01v8_lvt ad=1.6 pd=11.6 as=1.6 ps=11.6 w=5.5 l=0.8
X155 a_7406_9997# ring_100mV_0.mdls_inv_1.OUT.t12 dd_02.t15 dd_02.t2 sky130_fd_pr__pfet_01v8_lvt ad=0.29 pd=2.58 as=0.29 ps=2.58 w=1 l=2
X156 ring_100mV_0.mdls_inv_4.IN.t2 ring_100mV_0.mdls_inv_6.IN.t10 a_5930_10845.t5 ss.t135 sky130_fd_pr__nfet_01v8_lvt ad=1.6 pd=11.6 as=1.6 ps=11.6 w=5.5 l=0.8
X157 ss.t39 ring_100mV_0.mdls_inv_3.OUT.t13 a_5712_16467.t6 ss.t38 sky130_fd_pr__nfet_01v8_lvt ad=1.6 pd=11.6 as=1.6 ps=11.6 w=5.5 l=0.8
X158 ring_100mV_0.mdls_inv_3.OUT.t4 ring_100mV_0.mdls_inv_2.IN a_5930_14177.t2 ss.t178 sky130_fd_pr__nfet_01v8_lvt ad=1.6 pd=11.6 as=1.6 ps=11.6 w=5.5 l=0.8
X159 a_n169_16287.t2 a_n169_16287.t1 ss.t55 ss.t54 sky130_fd_pr__nfet_01v8_lvt ad=0.725 pd=5.58 as=0.725 ps=5.58 w=2.5 l=1
X160 ring_100mV_0.mdls_inv_7.OUT ring_100mV_0.mdls_inv_5.OUT a_9754_11956.t3 ss.t204 sky130_fd_pr__nfet_01v8_lvt ad=1.6 pd=11.6 as=1.6 ps=11.6 w=5.5 l=0.8
X161 dd_01.t50 dd_01.t48 dd_01.t49 dd_01.t3 sky130_fd_pr__pfet_01v8_lvt ad=0 pd=0 as=0.145 ps=1.58 w=0.5 l=2
X162 ring_out.t10 a_5712_16467.t21 ss.t167 ss.t166 sky130_fd_pr__nfet_01v8_lvt ad=1.6 pd=11.6 as=1.6 ps=11.6 w=5.5 l=0.8
X163 ring_100mV_0.mdls_inv_7.OUT ring_100mV_0.mdls_inv_5.OUT a_9754_11956.t2 ss.t203 sky130_fd_pr__nfet_01v8_lvt ad=1.6 pd=11.6 as=1.6 ps=11.6 w=5.5 l=0.8
X164 a_3482_12058# a_n81_16487.t16 a_n169_16287.t5 dd_01.t0 sky130_fd_pr__pfet_01v8_lvt ad=0.725 pd=5.58 as=0.725 ps=5.58 w=2.5 l=2
X165 ring_100mV_0.mdls_inv_3.OUT.t1 ring_100mV_0.mdls_inv_2.IN a_5930_14177.t1 ss.t177 sky130_fd_pr__nfet_01v8_lvt ad=1.6 pd=11.6 as=1.6 ps=11.6 w=5.5 l=0.8
X166 ss.t129 ring_100mV_0.mdls_inv_3.OUT.t14 a_5712_16467.t5 ss.t128 sky130_fd_pr__nfet_01v8_lvt ad=1.6 pd=11.6 as=1.6 ps=11.6 w=5.5 l=0.8
X167 a_9754_12986# ring_100mV_0.mdls_inv_2.OUT dd_02.t6 dd_02.t5 sky130_fd_pr__pfet_01v8_lvt ad=0.29 pd=2.58 as=0.29 ps=2.58 w=1 l=2
X168 a_9754_13622.t0 ring_100mV_0.mdls_inv_2.OUT ss.t15 ss.t14 sky130_fd_pr__nfet_01v8_lvt ad=1.6 pd=11.6 as=1.6 ps=11.6 w=5.5 l=1
X169 ss.t31 ring_100mV_0.mdls_inv_7.OUT a_9754_11956.t0 dd_02.t5 sky130_fd_pr__pfet_01v8_lvt ad=0.29 pd=2.58 as=0.29 ps=2.58 w=1 l=0.8
X170 dd_02.t9 ring_100mV_0.mdls_inv_7.OUT a_9754_11320# ss.t30 sky130_fd_pr__nfet_01v8_lvt ad=1.6 pd=11.6 as=1.6 ps=11.6 w=5.5 l=0.4
X171 a_1555_7968.t5 a_n81_16487.t2 a_n81_16487.t3 dd_01.t1 sky130_fd_pr__pfet_01v8_lvt ad=0.725 pd=5.58 as=0.725 ps=5.58 w=2.5 l=2
X172 a_5930_9179.t5 ring_100mV_0.mdls_inv_1.OUT.t13 ss.t111 ss.t110 sky130_fd_pr__nfet_01v8_lvt ad=1.6 pd=11.6 as=1.6 ps=11.6 w=5.5 l=1
X173 dd_01.t8 iref_2nA_0.iref_2nA_igenerator_0.Ip2.t21 a_3482_8138.t13 dd_01.t3 sky130_fd_pr__pfet_01v8_lvt ad=0.725 pd=5.58 as=0.725 ps=5.58 w=2.5 l=2
X174 ring_out.t9 a_5712_16467.t22 ss.t132 ss.t131 sky130_fd_pr__nfet_01v8_lvt ad=1.6 pd=11.6 as=1.6 ps=11.6 w=5.5 l=0.8
X175 dd_02.t4 ring_100mV_0.mdls_inv_2.OUT a_9754_14652# ss.t13 sky130_fd_pr__nfet_01v8_lvt ad=1.6 pd=11.6 as=1.6 ps=11.6 w=5.5 l=0.4
X176 dd_01.t7 iref_2nA_0.iref_2nA_igenerator_0.Ip2.t22 a_3482_8138.t12 dd_01.t3 sky130_fd_pr__pfet_01v8_lvt ad=0.725 pd=5.58 as=0.725 ps=5.58 w=2.5 l=2
X177 dd_02.t18 ring_100mV_0.mdls_inv_0.OUT.t15 a_9754_7988# ss.t61 sky130_fd_pr__nfet_01v8_lvt ad=1.6 pd=11.6 as=1.6 ps=11.6 w=5.5 l=0.4
X178 ring_100mV_0.mdls_inv_5.OUT ring_100mV_0.mdls_inv_2.OUT a_9754_13622.t4 ss.t12 sky130_fd_pr__nfet_01v8_lvt ad=1.6 pd=11.6 as=1.6 ps=11.6 w=5.5 l=0.8
X179 iref_2nA_0.iref_2nA_igenerator_0.VCTAT ss.t70 ss.t71 iref_2nA_0.iref_2nA_igenerator_0.VCTAT sky130_fd_pr__pfet_01v8 ad=0.58 pd=4.58 as=0.58 ps=4.58 w=2 l=0.5
X180 ring_100mV_0.mdls_inv_5.OUT ring_100mV_0.mdls_inv_2.OUT a_9754_13622.t3 ss.t11 sky130_fd_pr__nfet_01v8_lvt ad=1.6 pd=11.6 as=1.6 ps=11.6 w=5.5 l=0.8
X181 a_9754_10290.t1 ring_100mV_0.mdls_inv_7.OUT ss.t29 ss.t28 sky130_fd_pr__nfet_01v8_lvt ad=1.6 pd=11.6 as=1.6 ps=11.6 w=5.5 l=1
X182 ring_100mV_0.mdls_inv_0.IN ring_100mV_0.mdls_inv_7.OUT a_9754_9654# dd_02.t5 sky130_fd_pr__pfet_01v8_lvt ad=0.29 pd=2.58 as=0.29 ps=2.58 w=1 l=0.8
X183 a_9754_11956.t5 ring_100mV_0.mdls_inv_5.OUT ss.t202 ss.t201 sky130_fd_pr__nfet_01v8_lvt ad=1.6 pd=11.6 as=1.6 ps=11.6 w=5.5 l=1
X184 a_1786_15962# a_n81_16487.t17 iref_2nA_0.iref_2nA_igenerator_0.Ip1.t2 dd_01.t24 sky130_fd_pr__pfet_01v8_lvt ad=0.725 pd=5.58 as=0.725 ps=5.58 w=2.5 l=2
X185 a_n81_16487.t4 a_n169_16287.t9 ss.t2 ss.t1 sky130_fd_pr__nfet_01v8_lvt ad=0.725 pd=5.58 as=0.725 ps=5.58 w=2.5 l=1
X186 dd_01.t47 dd_01.t45 dd_01.t46 dd_01.t24 sky130_fd_pr__pfet_01v8_lvt ad=0 pd=0 as=0.145 ps=1.58 w=0.5 l=2
X187 dd_01.t44 dd_01.t42 dd_01.t43 dd_01.t0 sky130_fd_pr__pfet_01v8_lvt ad=0 pd=0 as=0.145 ps=1.58 w=0.5 l=2
X188 ring_out.t8 a_5712_16467.t23 ss.t231 ss.t230 sky130_fd_pr__nfet_01v8_lvt ad=1.6 pd=11.6 as=1.6 ps=11.6 w=5.5 l=0.8
X189 iref_2nA_0.iref_2nA_igenerator_0.VCTAT ss.t76 ss.t77 iref_2nA_0.iref_2nA_igenerator_0.VCTAT sky130_fd_pr__pfet_01v8 ad=0.58 pd=4.58 as=0.58 ps=4.58 w=2 l=0.5
X190 dd_02.t25 a_5712_16467.t24 ring_out.t1 dd_02.t24 sky130_fd_pr__pfet_01v8_lvt ad=0.29 pd=2.58 as=0.29 ps=2.58 w=1 l=0.8
X191 ldo_out.t2 ldo_vs.t0 a_14834_9380.t3 ldo_out.t0 sky130_fd_pr__pfet_01v8_lvt ad=1.76 pd=12.7 as=1.76 ps=12.7 w=6.07 l=1.27
X192 a_7406_14995# ring_100mV_0.mdls_inv_2.IN dd_02.t33 dd_02.t2 sky130_fd_pr__pfet_01v8_lvt ad=0.29 pd=2.58 as=0.29 ps=2.58 w=1 l=2
X193 dd_01.t6 iref_2nA_0.iref_2nA_igenerator_0.Ip2.t23 a_3482_8138.t11 dd_01.t3 sky130_fd_pr__pfet_01v8_lvt ad=0.725 pd=5.58 as=0.725 ps=5.58 w=2.5 l=2
X194 ss.t163 ring_100mV_0.mdls_inv_3.OUT.t15 a_5712_16467.t4 ss.t162 sky130_fd_pr__nfet_01v8_lvt ad=1.6 pd=11.6 as=1.6 ps=11.6 w=5.5 l=0.8
X195 dd_01.t41 dd_01.t39 dd_01.t40 dd_01.t22 sky130_fd_pr__pfet_01v8_lvt ad=0.145 pd=1.58 as=0 ps=0 w=0.5 l=2
X196 a_1786_15962# a_n81_16487.t18 iref_2nA_0.iref_2nA_igenerator_0.Ip1.t0 dd_01.t24 sky130_fd_pr__pfet_01v8_lvt ad=0.725 pd=5.58 as=0.725 ps=5.58 w=2.5 l=2
X197 ss.t75 ss.t72 ss.t74 ss.t73 sky130_fd_pr__nfet_01v8_lvt ad=1.48 pd=10.8 as=0 ps=0 w=5.1 l=0.66
X198 a_3482_8138.t3 a_n81_16487.t19 iref_2nA_0.iref_2nA_igenerator_0.Ip2.t9 dd_01.t0 sky130_fd_pr__pfet_01v8_lvt ad=0.725 pd=5.58 as=0.725 ps=5.58 w=2.5 l=2
X199 a_3482_12842# a_n81_16487.t20 iref.t0 dd_01.t0 sky130_fd_pr__pfet_01v8_lvt ad=0.725 pd=5.58 as=0.725 ps=5.58 w=2.5 l=2
X200 dd_01.t5 iref_2nA_0.iref_2nA_igenerator_0.Ip2.t24 a_3482_8138.t10 dd_01.t3 sky130_fd_pr__pfet_01v8_lvt ad=0.725 pd=5.58 as=0.725 ps=5.58 w=2.5 l=2
X201 dd_01.t4 iref_2nA_0.iref_2nA_igenerator_0.Ip2.t25 a_3482_12058# dd_01.t3 sky130_fd_pr__pfet_01v8_lvt ad=0.725 pd=5.58 as=0.725 ps=5.58 w=2.5 l=2
X202 ring_out.t7 a_5712_16467.t25 ss.t217 ss.t216 sky130_fd_pr__nfet_01v8_lvt ad=1.6 pd=11.6 as=1.6 ps=11.6 w=5.5 l=0.8
X203 a_9754_8624.t3 ring_100mV_0.mdls_inv_0.IN ss.t150 ss.t149 sky130_fd_pr__nfet_01v8_lvt ad=1.6 pd=11.6 as=1.6 ps=11.6 w=5.5 l=1
X204 ss.t221 ring_100mV_0.mdls_inv_1.OUT.t14 a_5930_7513.t6 dd_02.t2 sky130_fd_pr__pfet_01v8_lvt ad=0.29 pd=2.58 as=0.29 ps=2.58 w=1 l=0.8
X205 ss.t173 ring_100mV_0.mdls_inv_3.OUT.t16 a_5712_16467.t3 ss.t172 sky130_fd_pr__nfet_01v8_lvt ad=1.6 pd=11.6 as=1.6 ps=11.6 w=5.5 l=0.8
X206 a_14490_9380.t5 ldo_out.t3 sky130_fd_pr__cap_mim_m3_1 l=15 w=4
X207 dd_02.t19 ring_100mV_0.mdls_inv_1.OUT.t15 a_7406_8331# ss.t98 sky130_fd_pr__nfet_01v8_lvt ad=1.6 pd=11.6 as=1.6 ps=11.6 w=5.5 l=0.4
X208 a_1555_7968.t0 a_n81_16487.t0 a_n81_16487.t1 dd_01.t1 sky130_fd_pr__pfet_01v8_lvt ad=0.725 pd=5.58 as=0.725 ps=5.58 w=2.5 l=2
X209 ring_100mV_0.mdls_inv_7.OUT ring_100mV_0.mdls_inv_5.OUT a_9754_11320# dd_02.t5 sky130_fd_pr__pfet_01v8_lvt ad=0.29 pd=2.58 as=0.29 ps=2.58 w=1 l=0.8
X210 ring_100mV_0.mdls_inv_7.OUT ring_100mV_0.mdls_inv_5.OUT a_9754_11956.t1 ss.t200 sky130_fd_pr__nfet_01v8_lvt ad=1.6 pd=11.6 as=1.6 ps=11.6 w=5.5 l=0.8
X211 dd_02.t32 ring_100mV_0.mdls_inv_6.IN.t11 a_7406_9997# ss.t165 sky130_fd_pr__nfet_01v8_lvt ad=1.6 pd=11.6 as=1.6 ps=11.6 w=5.5 l=0.4
X212 ring_100mV_0.mdls_inv_4.IN.t1 ring_100mV_0.mdls_inv_6.IN.t12 a_5930_10845.t1 ss.t25 sky130_fd_pr__nfet_01v8_lvt ad=1.6 pd=11.6 as=1.6 ps=11.6 w=5.5 l=0.8
X213 a_3482_8138.t2 a_n81_16487.t21 iref_2nA_0.iref_2nA_igenerator_0.Ip2.t11 dd_01.t0 sky130_fd_pr__pfet_01v8_lvt ad=0.725 pd=5.58 as=0.725 ps=5.58 w=2.5 l=2
X214 dd_02.t37 ring_100mV_0.mdls_inv_5.OUT a_9754_12986# ss.t199 sky130_fd_pr__nfet_01v8_lvt ad=1.6 pd=11.6 as=1.6 ps=11.6 w=5.5 l=0.4
X215 a_5930_10845.t3 ring_100mV_0.mdls_inv_6.IN.t13 ss.t49 ss.t48 sky130_fd_pr__nfet_01v8_lvt ad=1.6 pd=11.6 as=1.6 ps=11.6 w=5.5 l=1